
---------- Begin Simulation Statistics ----------
simSeconds                                   0.003097                       # Number of seconds simulated (Second)
simTicks                                   3097393000                       # Number of ticks simulated (Tick)
finalTick                                  3097393000                       # Number of ticks from beginning of simulation (restored from checkpoints and never reset) (Tick)
simFreq                                  1000000000000                       # The number of ticks per simulated second ((Tick/Second))
hostSeconds                                      0.77                       # Real time elapsed on the host (Second)
hostTickRate                               4010336728                       # The number of ticks simulated per host second (ticks/s) ((Tick/Second))
hostMemory                                     644896                       # Number of bytes of host memory used (Byte)
simInsts                                      2435665                       # Number of instructions simulated (Count)
simOps                                        2435712                       # Number of ops (including micro ops) simulated (Count)
hostInstRate                                  3153338                       # Simulator instruction rate (inst/s) ((Count/Second))
hostOpRate                                    3153387                       # Simulator op (including micro ops) rate (op/s) ((Count/Second))
system.clk_domain.clock                          1000                       # Clock period in ticks (Tick)
system.cpu.numCycles                          6194786                       # Number of cpu cycles simulated (Cycle)
system.cpu.cpi                               2.543348                       # CPI: cycles per instruction (core level) ((Cycle/Count))
system.cpu.ipc                               0.393183                       # IPC: instructions per cycle (core level) ((Count/Cycle))
system.cpu.numWorkItemsStarted                      0                       # Number of work items this cpu started (Count)
system.cpu.numWorkItemsCompleted                    0                       # Number of work items this cpu completed (Count)
system.cpu.commitStats0.numInsts              2435682                       # Number of instructions committed (thread level) (Count)
system.cpu.commitStats0.numOps                2435729                       # Number of ops (including micro ops) committed (thread level) (Count)
system.cpu.commitStats0.numInstsNotNOP              0                       # Number of instructions committed excluding NOPs or prefetches (Count)
system.cpu.commitStats0.numOpsNotNOP                0                       # Number of Ops (including micro ops) Simulated (Count)
system.cpu.commitStats0.cpi                  2.543348                       # CPI: cycles per instruction (thread level) ((Cycle/Count))
system.cpu.commitStats0.ipc                  0.393183                       # IPC: instructions per cycle (thread level) ((Count/Cycle))
system.cpu.commitStats0.numMemRefs                  0                       # Number of memory references committed (Count)
system.cpu.commitStats0.numFpInsts                 12                       # Number of float instructions (Count)
system.cpu.commitStats0.numIntInsts           2432897                       # Number of integer instructions (Count)
system.cpu.commitStats0.numLoadInsts           276552                       # Number of load instructions (Count)
system.cpu.commitStats0.numStoreInsts            7456                       # Number of store instructions (Count)
system.cpu.commitStats0.numVecInsts                 0                       # Number of vector instructions (Count)
system.cpu.commitStats0.committedInstType::No_OpClass         2095      0.09%      0.09% # Class of committed instruction. (Count)
system.cpu.commitStats0.committedInstType::IntAlu      2149614     88.25%     88.34% # Class of committed instruction. (Count)
system.cpu.commitStats0.committedInstType::IntMult            6      0.00%     88.34% # Class of committed instruction. (Count)
system.cpu.commitStats0.committedInstType::IntDiv            6      0.00%     88.34% # Class of committed instruction. (Count)
system.cpu.commitStats0.committedInstType::FloatAdd            0      0.00%     88.34% # Class of committed instruction. (Count)
system.cpu.commitStats0.committedInstType::FloatCmp            0      0.00%     88.34% # Class of committed instruction. (Count)
system.cpu.commitStats0.committedInstType::FloatCvt            0      0.00%     88.34% # Class of committed instruction. (Count)
system.cpu.commitStats0.committedInstType::FloatMult            0      0.00%     88.34% # Class of committed instruction. (Count)
system.cpu.commitStats0.committedInstType::FloatMultAcc            0      0.00%     88.34% # Class of committed instruction. (Count)
system.cpu.commitStats0.committedInstType::FloatDiv            0      0.00%     88.34% # Class of committed instruction. (Count)
system.cpu.commitStats0.committedInstType::FloatMisc            0      0.00%     88.34% # Class of committed instruction. (Count)
system.cpu.commitStats0.committedInstType::FloatSqrt            0      0.00%     88.34% # Class of committed instruction. (Count)
system.cpu.commitStats0.committedInstType::SimdAdd            0      0.00%     88.34% # Class of committed instruction. (Count)
system.cpu.commitStats0.committedInstType::SimdAddAcc            0      0.00%     88.34% # Class of committed instruction. (Count)
system.cpu.commitStats0.committedInstType::SimdAlu            0      0.00%     88.34% # Class of committed instruction. (Count)
system.cpu.commitStats0.committedInstType::SimdCmp            0      0.00%     88.34% # Class of committed instruction. (Count)
system.cpu.commitStats0.committedInstType::SimdCvt            0      0.00%     88.34% # Class of committed instruction. (Count)
system.cpu.commitStats0.committedInstType::SimdMisc            0      0.00%     88.34% # Class of committed instruction. (Count)
system.cpu.commitStats0.committedInstType::SimdMult            0      0.00%     88.34% # Class of committed instruction. (Count)
system.cpu.commitStats0.committedInstType::SimdMultAcc            0      0.00%     88.34% # Class of committed instruction. (Count)
system.cpu.commitStats0.committedInstType::SimdMatMultAcc            0      0.00%     88.34% # Class of committed instruction. (Count)
system.cpu.commitStats0.committedInstType::SimdShift            0      0.00%     88.34% # Class of committed instruction. (Count)
system.cpu.commitStats0.committedInstType::SimdShiftAcc            0      0.00%     88.34% # Class of committed instruction. (Count)
system.cpu.commitStats0.committedInstType::SimdDiv            0      0.00%     88.34% # Class of committed instruction. (Count)
system.cpu.commitStats0.committedInstType::SimdSqrt            0      0.00%     88.34% # Class of committed instruction. (Count)
system.cpu.commitStats0.committedInstType::SimdFloatAdd            0      0.00%     88.34% # Class of committed instruction. (Count)
system.cpu.commitStats0.committedInstType::SimdFloatAlu            0      0.00%     88.34% # Class of committed instruction. (Count)
system.cpu.commitStats0.committedInstType::SimdFloatCmp            0      0.00%     88.34% # Class of committed instruction. (Count)
system.cpu.commitStats0.committedInstType::SimdFloatCvt            0      0.00%     88.34% # Class of committed instruction. (Count)
system.cpu.commitStats0.committedInstType::SimdFloatDiv            0      0.00%     88.34% # Class of committed instruction. (Count)
system.cpu.commitStats0.committedInstType::SimdFloatMisc            0      0.00%     88.34% # Class of committed instruction. (Count)
system.cpu.commitStats0.committedInstType::SimdFloatMult            0      0.00%     88.34% # Class of committed instruction. (Count)
system.cpu.commitStats0.committedInstType::SimdFloatMultAcc            0      0.00%     88.34% # Class of committed instruction. (Count)
system.cpu.commitStats0.committedInstType::SimdFloatMatMultAcc            0      0.00%     88.34% # Class of committed instruction. (Count)
system.cpu.commitStats0.committedInstType::SimdFloatSqrt            0      0.00%     88.34% # Class of committed instruction. (Count)
system.cpu.commitStats0.committedInstType::SimdReduceAdd            0      0.00%     88.34% # Class of committed instruction. (Count)
system.cpu.commitStats0.committedInstType::SimdReduceAlu            0      0.00%     88.34% # Class of committed instruction. (Count)
system.cpu.commitStats0.committedInstType::SimdReduceCmp            0      0.00%     88.34% # Class of committed instruction. (Count)
system.cpu.commitStats0.committedInstType::SimdFloatReduceAdd            0      0.00%     88.34% # Class of committed instruction. (Count)
system.cpu.commitStats0.committedInstType::SimdFloatReduceCmp            0      0.00%     88.34% # Class of committed instruction. (Count)
system.cpu.commitStats0.committedInstType::SimdAes            0      0.00%     88.34% # Class of committed instruction. (Count)
system.cpu.commitStats0.committedInstType::SimdAesMix            0      0.00%     88.34% # Class of committed instruction. (Count)
system.cpu.commitStats0.committedInstType::SimdSha1Hash            0      0.00%     88.34% # Class of committed instruction. (Count)
system.cpu.commitStats0.committedInstType::SimdSha1Hash2            0      0.00%     88.34% # Class of committed instruction. (Count)
system.cpu.commitStats0.committedInstType::SimdSha256Hash            0      0.00%     88.34% # Class of committed instruction. (Count)
system.cpu.commitStats0.committedInstType::SimdSha256Hash2            0      0.00%     88.34% # Class of committed instruction. (Count)
system.cpu.commitStats0.committedInstType::SimdShaSigma2            0      0.00%     88.34% # Class of committed instruction. (Count)
system.cpu.commitStats0.committedInstType::SimdShaSigma3            0      0.00%     88.34% # Class of committed instruction. (Count)
system.cpu.commitStats0.committedInstType::SimdPredAlu            0      0.00%     88.34% # Class of committed instruction. (Count)
system.cpu.commitStats0.committedInstType::Matrix            0      0.00%     88.34% # Class of committed instruction. (Count)
system.cpu.commitStats0.committedInstType::MatrixMov            0      0.00%     88.34% # Class of committed instruction. (Count)
system.cpu.commitStats0.committedInstType::MatrixOP            0      0.00%     88.34% # Class of committed instruction. (Count)
system.cpu.commitStats0.committedInstType::MemRead       276565     11.35%     99.69% # Class of committed instruction. (Count)
system.cpu.commitStats0.committedInstType::MemWrite         7431      0.31%    100.00% # Class of committed instruction. (Count)
system.cpu.commitStats0.committedInstType::FloatMemRead            0      0.00%    100.00% # Class of committed instruction. (Count)
system.cpu.commitStats0.committedInstType::FloatMemWrite           12      0.00%    100.00% # Class of committed instruction. (Count)
system.cpu.commitStats0.committedInstType::IprAccess            0      0.00%    100.00% # Class of committed instruction. (Count)
system.cpu.commitStats0.committedInstType::InstPrefetch            0      0.00%    100.00% # Class of committed instruction. (Count)
system.cpu.commitStats0.committedInstType::VectorUnitStrideLoad            0      0.00%    100.00% # Class of committed instruction. (Count)
system.cpu.commitStats0.committedInstType::VectorUnitStrideStore            0      0.00%    100.00% # Class of committed instruction. (Count)
system.cpu.commitStats0.committedInstType::VectorUnitStrideMaskLoad            0      0.00%    100.00% # Class of committed instruction. (Count)
system.cpu.commitStats0.committedInstType::VectorUnitStrideMaskStore            0      0.00%    100.00% # Class of committed instruction. (Count)
system.cpu.commitStats0.committedInstType::VectorStridedLoad            0      0.00%    100.00% # Class of committed instruction. (Count)
system.cpu.commitStats0.committedInstType::VectorStridedStore            0      0.00%    100.00% # Class of committed instruction. (Count)
system.cpu.commitStats0.committedInstType::VectorIndexedLoad            0      0.00%    100.00% # Class of committed instruction. (Count)
system.cpu.commitStats0.committedInstType::VectorIndexedStore            0      0.00%    100.00% # Class of committed instruction. (Count)
system.cpu.commitStats0.committedInstType::VectorUnitStrideFaultOnlyFirstLoad            0      0.00%    100.00% # Class of committed instruction. (Count)
system.cpu.commitStats0.committedInstType::VectorWholeRegisterLoad            0      0.00%    100.00% # Class of committed instruction. (Count)
system.cpu.commitStats0.committedInstType::VectorWholeRegisterStore            0      0.00%    100.00% # Class of committed instruction. (Count)
system.cpu.commitStats0.committedInstType::VectorIntegerArith            0      0.00%    100.00% # Class of committed instruction. (Count)
system.cpu.commitStats0.committedInstType::VectorFloatArith            0      0.00%    100.00% # Class of committed instruction. (Count)
system.cpu.commitStats0.committedInstType::VectorFloatConvert            0      0.00%    100.00% # Class of committed instruction. (Count)
system.cpu.commitStats0.committedInstType::VectorIntegerReduce            0      0.00%    100.00% # Class of committed instruction. (Count)
system.cpu.commitStats0.committedInstType::VectorFloatReduce            0      0.00%    100.00% # Class of committed instruction. (Count)
system.cpu.commitStats0.committedInstType::VectorMisc            0      0.00%    100.00% # Class of committed instruction. (Count)
system.cpu.commitStats0.committedInstType::VectorIntegerExtension            0      0.00%    100.00% # Class of committed instruction. (Count)
system.cpu.commitStats0.committedInstType::VectorConfig            0      0.00%    100.00% # Class of committed instruction. (Count)
system.cpu.commitStats0.committedInstType::total      2435729                       # Class of committed instruction. (Count)
system.cpu.commitStats0.committedControl::IsControl       287141                       # Class of control type instructions committed (Count)
system.cpu.commitStats0.committedControl::IsDirectControl       283427                       # Class of control type instructions committed (Count)
system.cpu.commitStats0.committedControl::IsIndirectControl         3714                       # Class of control type instructions committed (Count)
system.cpu.commitStats0.committedControl::IsCondControl       278776                       # Class of control type instructions committed (Count)
system.cpu.commitStats0.committedControl::IsUncondControl         8365                       # Class of control type instructions committed (Count)
system.cpu.commitStats0.committedControl::IsCall         1942                       # Class of control type instructions committed (Count)
system.cpu.commitStats0.committedControl::IsReturn         1937                       # Class of control type instructions committed (Count)
system.cpu.dcache.demandHits::cpu.data         282952                       # number of demand (read+write) hits (Count)
system.cpu.dcache.demandHits::total            282952                       # number of demand (read+write) hits (Count)
system.cpu.dcache.overallHits::cpu.data        282952                       # number of overall hits (Count)
system.cpu.dcache.overallHits::total           282952                       # number of overall hits (Count)
system.cpu.dcache.demandMisses::cpu.data         1018                       # number of demand (read+write) misses (Count)
system.cpu.dcache.demandMisses::total            1018                       # number of demand (read+write) misses (Count)
system.cpu.dcache.overallMisses::cpu.data         1018                       # number of overall misses (Count)
system.cpu.dcache.overallMisses::total           1018                       # number of overall misses (Count)
system.cpu.dcache.demandMissLatency::cpu.data     57707000                       # number of demand (read+write) miss ticks (Tick)
system.cpu.dcache.demandMissLatency::total     57707000                       # number of demand (read+write) miss ticks (Tick)
system.cpu.dcache.overallMissLatency::cpu.data     57707000                       # number of overall miss ticks (Tick)
system.cpu.dcache.overallMissLatency::total     57707000                       # number of overall miss ticks (Tick)
system.cpu.dcache.demandAccesses::cpu.data       283970                       # number of demand (read+write) accesses (Count)
system.cpu.dcache.demandAccesses::total        283970                       # number of demand (read+write) accesses (Count)
system.cpu.dcache.overallAccesses::cpu.data       283970                       # number of overall (read+write) accesses (Count)
system.cpu.dcache.overallAccesses::total       283970                       # number of overall (read+write) accesses (Count)
system.cpu.dcache.demandMissRate::cpu.data     0.003585                       # miss rate for demand accesses (Ratio)
system.cpu.dcache.demandMissRate::total      0.003585                       # miss rate for demand accesses (Ratio)
system.cpu.dcache.overallMissRate::cpu.data     0.003585                       # miss rate for overall accesses (Ratio)
system.cpu.dcache.overallMissRate::total     0.003585                       # miss rate for overall accesses (Ratio)
system.cpu.dcache.demandAvgMissLatency::cpu.data 56686.640472                       # average overall miss latency in ticks ((Tick/Count))
system.cpu.dcache.demandAvgMissLatency::total 56686.640472                       # average overall miss latency in ticks ((Tick/Count))
system.cpu.dcache.overallAvgMissLatency::cpu.data 56686.640472                       # average overall miss latency ((Tick/Count))
system.cpu.dcache.overallAvgMissLatency::total 56686.640472                       # average overall miss latency ((Tick/Count))
system.cpu.dcache.blockedCycles::no_mshrs            0                       # number of cycles access was blocked (Cycle)
system.cpu.dcache.blockedCycles::no_targets            0                       # number of cycles access was blocked (Cycle)
system.cpu.dcache.blockedCauses::no_mshrs            0                       # number of times access was blocked (Count)
system.cpu.dcache.blockedCauses::no_targets            0                       # number of times access was blocked (Count)
system.cpu.dcache.avgBlocked::no_mshrs            nan                       # average number of cycles each access was blocked ((Cycle/Count))
system.cpu.dcache.avgBlocked::no_targets          nan                       # average number of cycles each access was blocked ((Cycle/Count))
system.cpu.dcache.writebacks::writebacks           73                       # number of writebacks (Count)
system.cpu.dcache.writebacks::total                73                       # number of writebacks (Count)
system.cpu.dcache.demandMshrMisses::cpu.data         1018                       # number of demand (read+write) MSHR misses (Count)
system.cpu.dcache.demandMshrMisses::total         1018                       # number of demand (read+write) MSHR misses (Count)
system.cpu.dcache.overallMshrMisses::cpu.data         1018                       # number of overall MSHR misses (Count)
system.cpu.dcache.overallMshrMisses::total         1018                       # number of overall MSHR misses (Count)
system.cpu.dcache.demandMshrMissLatency::cpu.data     56689000                       # number of demand (read+write) MSHR miss ticks (Tick)
system.cpu.dcache.demandMshrMissLatency::total     56689000                       # number of demand (read+write) MSHR miss ticks (Tick)
system.cpu.dcache.overallMshrMissLatency::cpu.data     56689000                       # number of overall MSHR miss ticks (Tick)
system.cpu.dcache.overallMshrMissLatency::total     56689000                       # number of overall MSHR miss ticks (Tick)
system.cpu.dcache.demandMshrMissRate::cpu.data     0.003585                       # mshr miss ratio for demand accesses (Ratio)
system.cpu.dcache.demandMshrMissRate::total     0.003585                       # mshr miss ratio for demand accesses (Ratio)
system.cpu.dcache.overallMshrMissRate::cpu.data     0.003585                       # mshr miss ratio for overall accesses (Ratio)
system.cpu.dcache.overallMshrMissRate::total     0.003585                       # mshr miss ratio for overall accesses (Ratio)
system.cpu.dcache.demandAvgMshrMissLatency::cpu.data 55686.640472                       # average overall mshr miss latency ((Tick/Count))
system.cpu.dcache.demandAvgMshrMissLatency::total 55686.640472                       # average overall mshr miss latency ((Tick/Count))
system.cpu.dcache.overallAvgMshrMissLatency::cpu.data 55686.640472                       # average overall mshr miss latency ((Tick/Count))
system.cpu.dcache.overallAvgMshrMissLatency::total 55686.640472                       # average overall mshr miss latency ((Tick/Count))
system.cpu.dcache.replacements                    184                       # number of replacements (Count)
system.cpu.dcache.LoadLockedReq.hits::cpu.data           10                       # number of LoadLockedReq hits (Count)
system.cpu.dcache.LoadLockedReq.hits::total           10                       # number of LoadLockedReq hits (Count)
system.cpu.dcache.LoadLockedReq.misses::cpu.data            1                       # number of LoadLockedReq misses (Count)
system.cpu.dcache.LoadLockedReq.misses::total            1                       # number of LoadLockedReq misses (Count)
system.cpu.dcache.LoadLockedReq.missLatency::cpu.data        79000                       # number of LoadLockedReq miss ticks (Tick)
system.cpu.dcache.LoadLockedReq.missLatency::total        79000                       # number of LoadLockedReq miss ticks (Tick)
system.cpu.dcache.LoadLockedReq.accesses::cpu.data           11                       # number of LoadLockedReq accesses(hits+misses) (Count)
system.cpu.dcache.LoadLockedReq.accesses::total           11                       # number of LoadLockedReq accesses(hits+misses) (Count)
system.cpu.dcache.LoadLockedReq.missRate::cpu.data     0.090909                       # miss rate for LoadLockedReq accesses (Ratio)
system.cpu.dcache.LoadLockedReq.missRate::total     0.090909                       # miss rate for LoadLockedReq accesses (Ratio)
system.cpu.dcache.LoadLockedReq.avgMissLatency::cpu.data        79000                       # average LoadLockedReq miss latency ((Tick/Count))
system.cpu.dcache.LoadLockedReq.avgMissLatency::total        79000                       # average LoadLockedReq miss latency ((Tick/Count))
system.cpu.dcache.LoadLockedReq.mshrMisses::cpu.data            1                       # number of LoadLockedReq MSHR misses (Count)
system.cpu.dcache.LoadLockedReq.mshrMisses::total            1                       # number of LoadLockedReq MSHR misses (Count)
system.cpu.dcache.LoadLockedReq.mshrMissLatency::cpu.data        78000                       # number of LoadLockedReq MSHR miss ticks (Tick)
system.cpu.dcache.LoadLockedReq.mshrMissLatency::total        78000                       # number of LoadLockedReq MSHR miss ticks (Tick)
system.cpu.dcache.LoadLockedReq.mshrMissRate::cpu.data     0.090909                       # mshr miss rate for LoadLockedReq accesses (Ratio)
system.cpu.dcache.LoadLockedReq.mshrMissRate::total     0.090909                       # mshr miss rate for LoadLockedReq accesses (Ratio)
system.cpu.dcache.LoadLockedReq.avgMshrMissLatency::cpu.data        78000                       # average LoadLockedReq mshr miss latency ((Tick/Count))
system.cpu.dcache.LoadLockedReq.avgMshrMissLatency::total        78000                       # average LoadLockedReq mshr miss latency ((Tick/Count))
system.cpu.dcache.ReadReq.hits::cpu.data       275665                       # number of ReadReq hits (Count)
system.cpu.dcache.ReadReq.hits::total          275665                       # number of ReadReq hits (Count)
system.cpu.dcache.ReadReq.misses::cpu.data          876                       # number of ReadReq misses (Count)
system.cpu.dcache.ReadReq.misses::total           876                       # number of ReadReq misses (Count)
system.cpu.dcache.ReadReq.missLatency::cpu.data     50133000                       # number of ReadReq miss ticks (Tick)
system.cpu.dcache.ReadReq.missLatency::total     50133000                       # number of ReadReq miss ticks (Tick)
system.cpu.dcache.ReadReq.accesses::cpu.data       276541                       # number of ReadReq accesses(hits+misses) (Count)
system.cpu.dcache.ReadReq.accesses::total       276541                       # number of ReadReq accesses(hits+misses) (Count)
system.cpu.dcache.ReadReq.missRate::cpu.data     0.003168                       # miss rate for ReadReq accesses (Ratio)
system.cpu.dcache.ReadReq.missRate::total     0.003168                       # miss rate for ReadReq accesses (Ratio)
system.cpu.dcache.ReadReq.avgMissLatency::cpu.data 57229.452055                       # average ReadReq miss latency ((Tick/Count))
system.cpu.dcache.ReadReq.avgMissLatency::total 57229.452055                       # average ReadReq miss latency ((Tick/Count))
system.cpu.dcache.ReadReq.mshrMisses::cpu.data          876                       # number of ReadReq MSHR misses (Count)
system.cpu.dcache.ReadReq.mshrMisses::total          876                       # number of ReadReq MSHR misses (Count)
system.cpu.dcache.ReadReq.mshrMissLatency::cpu.data     49257000                       # number of ReadReq MSHR miss ticks (Tick)
system.cpu.dcache.ReadReq.mshrMissLatency::total     49257000                       # number of ReadReq MSHR miss ticks (Tick)
system.cpu.dcache.ReadReq.mshrMissRate::cpu.data     0.003168                       # mshr miss rate for ReadReq accesses (Ratio)
system.cpu.dcache.ReadReq.mshrMissRate::total     0.003168                       # mshr miss rate for ReadReq accesses (Ratio)
system.cpu.dcache.ReadReq.avgMshrMissLatency::cpu.data 56229.452055                       # average ReadReq mshr miss latency ((Tick/Count))
system.cpu.dcache.ReadReq.avgMshrMissLatency::total 56229.452055                       # average ReadReq mshr miss latency ((Tick/Count))
system.cpu.dcache.StoreCondReq.hits::cpu.data           11                       # number of StoreCondReq hits (Count)
system.cpu.dcache.StoreCondReq.hits::total           11                       # number of StoreCondReq hits (Count)
system.cpu.dcache.StoreCondReq.accesses::cpu.data           11                       # number of StoreCondReq accesses(hits+misses) (Count)
system.cpu.dcache.StoreCondReq.accesses::total           11                       # number of StoreCondReq accesses(hits+misses) (Count)
system.cpu.dcache.SwapReq.hits::cpu.data           13                       # number of SwapReq hits (Count)
system.cpu.dcache.SwapReq.hits::total              13                       # number of SwapReq hits (Count)
system.cpu.dcache.SwapReq.accesses::cpu.data           13                       # number of SwapReq accesses(hits+misses) (Count)
system.cpu.dcache.SwapReq.accesses::total           13                       # number of SwapReq accesses(hits+misses) (Count)
system.cpu.dcache.WriteReq.hits::cpu.data         7287                       # number of WriteReq hits (Count)
system.cpu.dcache.WriteReq.hits::total           7287                       # number of WriteReq hits (Count)
system.cpu.dcache.WriteReq.misses::cpu.data          142                       # number of WriteReq misses (Count)
system.cpu.dcache.WriteReq.misses::total          142                       # number of WriteReq misses (Count)
system.cpu.dcache.WriteReq.missLatency::cpu.data      7574000                       # number of WriteReq miss ticks (Tick)
system.cpu.dcache.WriteReq.missLatency::total      7574000                       # number of WriteReq miss ticks (Tick)
system.cpu.dcache.WriteReq.accesses::cpu.data         7429                       # number of WriteReq accesses(hits+misses) (Count)
system.cpu.dcache.WriteReq.accesses::total         7429                       # number of WriteReq accesses(hits+misses) (Count)
system.cpu.dcache.WriteReq.missRate::cpu.data     0.019114                       # miss rate for WriteReq accesses (Ratio)
system.cpu.dcache.WriteReq.missRate::total     0.019114                       # miss rate for WriteReq accesses (Ratio)
system.cpu.dcache.WriteReq.avgMissLatency::cpu.data 53338.028169                       # average WriteReq miss latency ((Tick/Count))
system.cpu.dcache.WriteReq.avgMissLatency::total 53338.028169                       # average WriteReq miss latency ((Tick/Count))
system.cpu.dcache.WriteReq.mshrMisses::cpu.data          142                       # number of WriteReq MSHR misses (Count)
system.cpu.dcache.WriteReq.mshrMisses::total          142                       # number of WriteReq MSHR misses (Count)
system.cpu.dcache.WriteReq.mshrMissLatency::cpu.data      7432000                       # number of WriteReq MSHR miss ticks (Tick)
system.cpu.dcache.WriteReq.mshrMissLatency::total      7432000                       # number of WriteReq MSHR miss ticks (Tick)
system.cpu.dcache.WriteReq.mshrMissRate::cpu.data     0.019114                       # mshr miss rate for WriteReq accesses (Ratio)
system.cpu.dcache.WriteReq.mshrMissRate::total     0.019114                       # mshr miss rate for WriteReq accesses (Ratio)
system.cpu.dcache.WriteReq.avgMshrMissLatency::cpu.data 52338.028169                       # average WriteReq mshr miss latency ((Tick/Count))
system.cpu.dcache.WriteReq.avgMshrMissLatency::total 52338.028169                       # average WriteReq mshr miss latency ((Tick/Count))
system.cpu.dcache.power_state.pwrStateResidencyTicks::UNDEFINED   3097393000                       # Cumulative time (in ticks) in various power states (Tick)
system.cpu.dcache.tags.tagsInUse           795.694245                       # Average ticks per tags in use ((Tick/Count))
system.cpu.dcache.tags.totalRefs               284005                       # Total number of references to valid blocks. (Count)
system.cpu.dcache.tags.sampledRefs               1019                       # Sample count of references to valid blocks. (Count)
system.cpu.dcache.tags.avgRefs             278.709519                       # Average number of references to valid blocks. ((Count/Count))
system.cpu.dcache.tags.warmupTick              205000                       # The tick when the warmup percentage was hit. (Tick)
system.cpu.dcache.tags.occupancies::cpu.data   795.694245                       # Average occupied blocks per tick, per requestor ((Count/Tick))
system.cpu.dcache.tags.avgOccs::cpu.data     0.777045                       # Average percentage of cache occupancy ((Ratio/Tick))
system.cpu.dcache.tags.avgOccs::total        0.777045                       # Average percentage of cache occupancy ((Ratio/Tick))
system.cpu.dcache.tags.occupanciesTaskId::1024          835                       # Occupied blocks per task id (Count)
system.cpu.dcache.tags.ageTaskId_1024::0           17                       # Occupied blocks per task id, per block age (Count)
system.cpu.dcache.tags.ageTaskId_1024::1           44                       # Occupied blocks per task id, per block age (Count)
system.cpu.dcache.tags.ageTaskId_1024::3          774                       # Occupied blocks per task id, per block age (Count)
system.cpu.dcache.tags.ratioOccsTaskId::1024     0.815430                       # Ratio of occupied blocks and all blocks, per task id (Ratio)
system.cpu.dcache.tags.tagAccesses             569029                       # Number of tag accesses (Count)
system.cpu.dcache.tags.dataAccesses            569029                       # Number of data accesses (Count)
system.cpu.dcache.tags.power_state.pwrStateResidencyTicks::UNDEFINED   3097393000                       # Cumulative time (in ticks) in various power states (Tick)
system.cpu.dtb_walker_cache.blockedCycles::no_mshrs            0                       # number of cycles access was blocked (Cycle)
system.cpu.dtb_walker_cache.blockedCycles::no_targets            0                       # number of cycles access was blocked (Cycle)
system.cpu.dtb_walker_cache.blockedCauses::no_mshrs            0                       # number of times access was blocked (Count)
system.cpu.dtb_walker_cache.blockedCauses::no_targets            0                       # number of times access was blocked (Count)
system.cpu.dtb_walker_cache.avgBlocked::no_mshrs          nan                       # average number of cycles each access was blocked ((Cycle/Count))
system.cpu.dtb_walker_cache.avgBlocked::no_targets          nan                       # average number of cycles each access was blocked ((Cycle/Count))
system.cpu.dtb_walker_cache.replacements            0                       # number of replacements (Count)
system.cpu.dtb_walker_cache.power_state.pwrStateResidencyTicks::UNDEFINED   3097393000                       # Cumulative time (in ticks) in various power states (Tick)
system.cpu.dtb_walker_cache.tags.tagsInUse            0                       # Average ticks per tags in use ((Tick/Count))
system.cpu.dtb_walker_cache.tags.totalRefs            0                       # Total number of references to valid blocks. (Count)
system.cpu.dtb_walker_cache.tags.sampledRefs            0                       # Sample count of references to valid blocks. (Count)
system.cpu.dtb_walker_cache.tags.avgRefs          nan                       # Average number of references to valid blocks. ((Count/Count))
system.cpu.dtb_walker_cache.tags.warmupTick            0                       # The tick when the warmup percentage was hit. (Tick)
system.cpu.dtb_walker_cache.tags.tagAccesses            0                       # Number of tag accesses (Count)
system.cpu.dtb_walker_cache.tags.dataAccesses            0                       # Number of data accesses (Count)
system.cpu.dtb_walker_cache.tags.power_state.pwrStateResidencyTicks::UNDEFINED   3097393000                       # Cumulative time (in ticks) in various power states (Tick)
system.cpu.exec_context.thread_0.numMatAluAccesses            0                       # Number of matrix alu accesses (Count)
system.cpu.exec_context.thread_0.numCallsReturns         3879                       # Number of times a function call or return occured (Count)
system.cpu.exec_context.thread_0.numMatInsts            0                       # Number of matrix instructions (Count)
system.cpu.exec_context.thread_0.numIdleCycles     0.002000                       # Number of idle cycles (Cycle)
system.cpu.exec_context.thread_0.numBusyCycles 6194785.998000                       # Number of busy cycles (Cycle)
system.cpu.exec_context.thread_0.notIdleFraction     1.000000                       # Percentage of non-idle cycles (Ratio)
system.cpu.exec_context.thread_0.idleFraction     0.000000                       # Percentage of idle cycles (Ratio)
system.cpu.executeStats0.numInsts                   0                       # Number of executed instructions (Count)
system.cpu.executeStats0.numNop                     0                       # Number of nop insts executed (Count)
system.cpu.executeStats0.numBranches                0                       # Number of branches executed (Count)
system.cpu.executeStats0.numLoadInsts               0                       # Number of load instructions executed (Count)
system.cpu.executeStats0.numStoreInsts         284008                       # Number of stores executed (Count)
system.cpu.executeStats0.instRate                   0                       # Inst execution rate ((Count/Cycle))
system.cpu.executeStats0.numFpAluAccesses           12                       # Number of float alu accesses (Count)
system.cpu.executeStats0.numFpRegReads             12                       # Number of times the floating registers were read (Count)
system.cpu.executeStats0.numFpRegWrites             0                       # Number of times the floating registers were written (Count)
system.cpu.executeStats0.numIntAluAccesses      2432897                       # Number of integer alu accesses (Count)
system.cpu.executeStats0.numIntRegReads       3476740                       # Number of times the integer registers were read (Count)
system.cpu.executeStats0.numIntRegWrites      2143003                       # Number of times the integer registers were written (Count)
system.cpu.executeStats0.numMemRefs            284008                       # Number of memory refs (Count)
system.cpu.executeStats0.numMiscRegReads         4026                       # Number of times the Misc registers were read (Count)
system.cpu.executeStats0.numVecAluAccesses            0                       # Number of vector alu accesses (Count)
system.cpu.executeStats0.numDiscardedOps            0                       # Number of ops (including micro ops) which were discarded before commit (Count)
system.cpu.fetchStats0.numInsts               2435682                       # Number of instructions fetched (thread level) (Count)
system.cpu.fetchStats0.numOps                 2435729                       # Number of ops (including micro ops) fetched (thread level) (Count)
system.cpu.fetchStats0.fetchRate             0.393183                       # Number of inst fetches per cycle ((Count/Cycle))
system.cpu.fetchStats0.numBranches             287141                       # Number of branches fetched (Count)
system.cpu.fetchStats0.branchRate            0.046352                       # Number of branch fetches per cycle (Ratio)
system.cpu.fetchStats0.numFetchSuspends             0                       # Number of times Execute suspended instruction fetching (Count)
system.cpu.icache.demandHits::cpu.inst        2733801                       # number of demand (read+write) hits (Count)
system.cpu.icache.demandHits::total           2733801                       # number of demand (read+write) hits (Count)
system.cpu.icache.overallHits::cpu.inst       2733801                       # number of overall hits (Count)
system.cpu.icache.overallHits::total          2733801                       # number of overall hits (Count)
system.cpu.icache.demandMisses::cpu.inst          381                       # number of demand (read+write) misses (Count)
system.cpu.icache.demandMisses::total             381                       # number of demand (read+write) misses (Count)
system.cpu.icache.overallMisses::cpu.inst          381                       # number of overall misses (Count)
system.cpu.icache.overallMisses::total            381                       # number of overall misses (Count)
system.cpu.icache.demandMissLatency::cpu.inst     21191000                       # number of demand (read+write) miss ticks (Tick)
system.cpu.icache.demandMissLatency::total     21191000                       # number of demand (read+write) miss ticks (Tick)
system.cpu.icache.overallMissLatency::cpu.inst     21191000                       # number of overall miss ticks (Tick)
system.cpu.icache.overallMissLatency::total     21191000                       # number of overall miss ticks (Tick)
system.cpu.icache.demandAccesses::cpu.inst      2734182                       # number of demand (read+write) accesses (Count)
system.cpu.icache.demandAccesses::total       2734182                       # number of demand (read+write) accesses (Count)
system.cpu.icache.overallAccesses::cpu.inst      2734182                       # number of overall (read+write) accesses (Count)
system.cpu.icache.overallAccesses::total      2734182                       # number of overall (read+write) accesses (Count)
system.cpu.icache.demandMissRate::cpu.inst     0.000139                       # miss rate for demand accesses (Ratio)
system.cpu.icache.demandMissRate::total      0.000139                       # miss rate for demand accesses (Ratio)
system.cpu.icache.overallMissRate::cpu.inst     0.000139                       # miss rate for overall accesses (Ratio)
system.cpu.icache.overallMissRate::total     0.000139                       # miss rate for overall accesses (Ratio)
system.cpu.icache.demandAvgMissLatency::cpu.inst 55619.422572                       # average overall miss latency in ticks ((Tick/Count))
system.cpu.icache.demandAvgMissLatency::total 55619.422572                       # average overall miss latency in ticks ((Tick/Count))
system.cpu.icache.overallAvgMissLatency::cpu.inst 55619.422572                       # average overall miss latency ((Tick/Count))
system.cpu.icache.overallAvgMissLatency::total 55619.422572                       # average overall miss latency ((Tick/Count))
system.cpu.icache.blockedCycles::no_mshrs            0                       # number of cycles access was blocked (Cycle)
system.cpu.icache.blockedCycles::no_targets            0                       # number of cycles access was blocked (Cycle)
system.cpu.icache.blockedCauses::no_mshrs            0                       # number of times access was blocked (Count)
system.cpu.icache.blockedCauses::no_targets            0                       # number of times access was blocked (Count)
system.cpu.icache.avgBlocked::no_mshrs            nan                       # average number of cycles each access was blocked ((Cycle/Count))
system.cpu.icache.avgBlocked::no_targets          nan                       # average number of cycles each access was blocked ((Cycle/Count))
system.cpu.icache.writebacks::writebacks           82                       # number of writebacks (Count)
system.cpu.icache.writebacks::total                82                       # number of writebacks (Count)
system.cpu.icache.demandMshrMisses::cpu.inst          381                       # number of demand (read+write) MSHR misses (Count)
system.cpu.icache.demandMshrMisses::total          381                       # number of demand (read+write) MSHR misses (Count)
system.cpu.icache.overallMshrMisses::cpu.inst          381                       # number of overall MSHR misses (Count)
system.cpu.icache.overallMshrMisses::total          381                       # number of overall MSHR misses (Count)
system.cpu.icache.demandMshrMissLatency::cpu.inst     20810000                       # number of demand (read+write) MSHR miss ticks (Tick)
system.cpu.icache.demandMshrMissLatency::total     20810000                       # number of demand (read+write) MSHR miss ticks (Tick)
system.cpu.icache.overallMshrMissLatency::cpu.inst     20810000                       # number of overall MSHR miss ticks (Tick)
system.cpu.icache.overallMshrMissLatency::total     20810000                       # number of overall MSHR miss ticks (Tick)
system.cpu.icache.demandMshrMissRate::cpu.inst     0.000139                       # mshr miss ratio for demand accesses (Ratio)
system.cpu.icache.demandMshrMissRate::total     0.000139                       # mshr miss ratio for demand accesses (Ratio)
system.cpu.icache.overallMshrMissRate::cpu.inst     0.000139                       # mshr miss ratio for overall accesses (Ratio)
system.cpu.icache.overallMshrMissRate::total     0.000139                       # mshr miss ratio for overall accesses (Ratio)
system.cpu.icache.demandAvgMshrMissLatency::cpu.inst 54619.422572                       # average overall mshr miss latency ((Tick/Count))
system.cpu.icache.demandAvgMshrMissLatency::total 54619.422572                       # average overall mshr miss latency ((Tick/Count))
system.cpu.icache.overallAvgMshrMissLatency::cpu.inst 54619.422572                       # average overall mshr miss latency ((Tick/Count))
system.cpu.icache.overallAvgMshrMissLatency::total 54619.422572                       # average overall mshr miss latency ((Tick/Count))
system.cpu.icache.replacements                     82                       # number of replacements (Count)
system.cpu.icache.ReadReq.hits::cpu.inst      2733801                       # number of ReadReq hits (Count)
system.cpu.icache.ReadReq.hits::total         2733801                       # number of ReadReq hits (Count)
system.cpu.icache.ReadReq.misses::cpu.inst          381                       # number of ReadReq misses (Count)
system.cpu.icache.ReadReq.misses::total           381                       # number of ReadReq misses (Count)
system.cpu.icache.ReadReq.missLatency::cpu.inst     21191000                       # number of ReadReq miss ticks (Tick)
system.cpu.icache.ReadReq.missLatency::total     21191000                       # number of ReadReq miss ticks (Tick)
system.cpu.icache.ReadReq.accesses::cpu.inst      2734182                       # number of ReadReq accesses(hits+misses) (Count)
system.cpu.icache.ReadReq.accesses::total      2734182                       # number of ReadReq accesses(hits+misses) (Count)
system.cpu.icache.ReadReq.missRate::cpu.inst     0.000139                       # miss rate for ReadReq accesses (Ratio)
system.cpu.icache.ReadReq.missRate::total     0.000139                       # miss rate for ReadReq accesses (Ratio)
system.cpu.icache.ReadReq.avgMissLatency::cpu.inst 55619.422572                       # average ReadReq miss latency ((Tick/Count))
system.cpu.icache.ReadReq.avgMissLatency::total 55619.422572                       # average ReadReq miss latency ((Tick/Count))
system.cpu.icache.ReadReq.mshrMisses::cpu.inst          381                       # number of ReadReq MSHR misses (Count)
system.cpu.icache.ReadReq.mshrMisses::total          381                       # number of ReadReq MSHR misses (Count)
system.cpu.icache.ReadReq.mshrMissLatency::cpu.inst     20810000                       # number of ReadReq MSHR miss ticks (Tick)
system.cpu.icache.ReadReq.mshrMissLatency::total     20810000                       # number of ReadReq MSHR miss ticks (Tick)
system.cpu.icache.ReadReq.mshrMissRate::cpu.inst     0.000139                       # mshr miss rate for ReadReq accesses (Ratio)
system.cpu.icache.ReadReq.mshrMissRate::total     0.000139                       # mshr miss rate for ReadReq accesses (Ratio)
system.cpu.icache.ReadReq.avgMshrMissLatency::cpu.inst 54619.422572                       # average ReadReq mshr miss latency ((Tick/Count))
system.cpu.icache.ReadReq.avgMshrMissLatency::total 54619.422572                       # average ReadReq mshr miss latency ((Tick/Count))
system.cpu.icache.power_state.pwrStateResidencyTicks::UNDEFINED   3097393000                       # Cumulative time (in ticks) in various power states (Tick)
system.cpu.icache.tags.tagsInUse           201.566686                       # Average ticks per tags in use ((Tick/Count))
system.cpu.icache.tags.totalRefs              2734182                       # Total number of references to valid blocks. (Count)
system.cpu.icache.tags.sampledRefs                381                       # Sample count of references to valid blocks. (Count)
system.cpu.icache.tags.avgRefs            7176.330709                       # Average number of references to valid blocks. ((Count/Count))
system.cpu.icache.tags.warmupTick               77000                       # The tick when the warmup percentage was hit. (Tick)
system.cpu.icache.tags.occupancies::cpu.inst   201.566686                       # Average occupied blocks per tick, per requestor ((Count/Tick))
system.cpu.icache.tags.avgOccs::cpu.inst     0.393685                       # Average percentage of cache occupancy ((Ratio/Tick))
system.cpu.icache.tags.avgOccs::total        0.393685                       # Average percentage of cache occupancy ((Ratio/Tick))
system.cpu.icache.tags.occupanciesTaskId::1024          299                       # Occupied blocks per task id (Count)
system.cpu.icache.tags.ageTaskId_1024::0           73                       # Occupied blocks per task id, per block age (Count)
system.cpu.icache.tags.ageTaskId_1024::1           64                       # Occupied blocks per task id, per block age (Count)
system.cpu.icache.tags.ageTaskId_1024::3          162                       # Occupied blocks per task id, per block age (Count)
system.cpu.icache.tags.ratioOccsTaskId::1024     0.583984                       # Ratio of occupied blocks and all blocks, per task id (Ratio)
system.cpu.icache.tags.tagAccesses            5468745                       # Number of tag accesses (Count)
system.cpu.icache.tags.dataAccesses           5468745                       # Number of data accesses (Count)
system.cpu.icache.tags.power_state.pwrStateResidencyTicks::UNDEFINED   3097393000                       # Cumulative time (in ticks) in various power states (Tick)
system.cpu.itb_walker_cache.blockedCycles::no_mshrs            0                       # number of cycles access was blocked (Cycle)
system.cpu.itb_walker_cache.blockedCycles::no_targets            0                       # number of cycles access was blocked (Cycle)
system.cpu.itb_walker_cache.blockedCauses::no_mshrs            0                       # number of times access was blocked (Count)
system.cpu.itb_walker_cache.blockedCauses::no_targets            0                       # number of times access was blocked (Count)
system.cpu.itb_walker_cache.avgBlocked::no_mshrs          nan                       # average number of cycles each access was blocked ((Cycle/Count))
system.cpu.itb_walker_cache.avgBlocked::no_targets          nan                       # average number of cycles each access was blocked ((Cycle/Count))
system.cpu.itb_walker_cache.replacements            0                       # number of replacements (Count)
system.cpu.itb_walker_cache.power_state.pwrStateResidencyTicks::UNDEFINED   3097393000                       # Cumulative time (in ticks) in various power states (Tick)
system.cpu.itb_walker_cache.tags.tagsInUse            0                       # Average ticks per tags in use ((Tick/Count))
system.cpu.itb_walker_cache.tags.totalRefs            0                       # Total number of references to valid blocks. (Count)
system.cpu.itb_walker_cache.tags.sampledRefs            0                       # Sample count of references to valid blocks. (Count)
system.cpu.itb_walker_cache.tags.avgRefs          nan                       # Average number of references to valid blocks. ((Count/Count))
system.cpu.itb_walker_cache.tags.warmupTick            0                       # The tick when the warmup percentage was hit. (Tick)
system.cpu.itb_walker_cache.tags.tagAccesses            0                       # Number of tag accesses (Count)
system.cpu.itb_walker_cache.tags.dataAccesses            0                       # Number of data accesses (Count)
system.cpu.itb_walker_cache.tags.power_state.pwrStateResidencyTicks::UNDEFINED   3097393000                       # Cumulative time (in ticks) in various power states (Tick)
system.cpu.mmu.dtb.readHits                         0                       # read hits (Count)
system.cpu.mmu.dtb.readMisses                       0                       # read misses (Count)
system.cpu.mmu.dtb.readAccesses                     0                       # read accesses (Count)
system.cpu.mmu.dtb.writeHits                        0                       # write hits (Count)
system.cpu.mmu.dtb.writeMisses                      0                       # write misses (Count)
system.cpu.mmu.dtb.writeAccesses                    0                       # write accesses (Count)
system.cpu.mmu.dtb.hits                             0                       # Total TLB (read and write) hits (Count)
system.cpu.mmu.dtb.misses                           0                       # Total TLB (read and write) misses (Count)
system.cpu.mmu.dtb.accesses                         0                       # Total TLB (read and write) accesses (Count)
system.cpu.mmu.dtb.walker.power_state.pwrStateResidencyTicks::UNDEFINED   3097393000                       # Cumulative time (in ticks) in various power states (Tick)
system.cpu.mmu.itb.readHits                         0                       # read hits (Count)
system.cpu.mmu.itb.readMisses                       0                       # read misses (Count)
system.cpu.mmu.itb.readAccesses                     0                       # read accesses (Count)
system.cpu.mmu.itb.writeHits                        0                       # write hits (Count)
system.cpu.mmu.itb.writeMisses                      0                       # write misses (Count)
system.cpu.mmu.itb.writeAccesses                    0                       # write accesses (Count)
system.cpu.mmu.itb.hits                             0                       # Total TLB (read and write) hits (Count)
system.cpu.mmu.itb.misses                           0                       # Total TLB (read and write) misses (Count)
system.cpu.mmu.itb.accesses                         0                       # Total TLB (read and write) accesses (Count)
system.cpu.mmu.itb.walker.power_state.pwrStateResidencyTicks::UNDEFINED   3097393000                       # Cumulative time (in ticks) in various power states (Tick)
system.cpu.power_state.pwrStateResidencyTicks::ON   3097393000                       # Cumulative time (in ticks) in various power states (Tick)
system.cpu.thread_0.numInsts                        0                       # Number of Instructions committed (Count)
system.cpu.thread_0.numOps                          0                       # Number of Ops committed (Count)
system.cpu.thread_0.numMemRefs                      0                       # Number of Memory References (Count)
system.cpu.workload.numSyscalls                    14                       # Number of system calls (Count)
system.cpu_clk_domain.clock                       500                       # Clock period in ticks (Tick)
system.cpu_voltage_domain.voltage                   1                       # Voltage in Volts (Volt)
system.mem_ctrls.avgPriority_writebacks::samples       155.00                       # Average QoS priority value for accepted requests (Count)
system.mem_ctrls.avgPriority_cpu.inst::samples       372.00                       # Average QoS priority value for accepted requests (Count)
system.mem_ctrls.avgPriority_cpu.data::samples      1015.00                       # Average QoS priority value for accepted requests (Count)
system.mem_ctrls.priorityMinLatency      0.000000018750                       # per QoS priority minimum request to response latency (Second)
system.mem_ctrls.priorityMaxLatency      0.005741690750                       # per QoS priority maximum request to response latency (Second)
system.mem_ctrls.numReadWriteTurnArounds            8                       # Number of turnarounds from READ to WRITE (Count)
system.mem_ctrls.numWriteReadTurnArounds            8                       # Number of turnarounds from WRITE to READ (Count)
system.mem_ctrls.numStayReadState                3719                       # Number of times bus staying in READ state (Count)
system.mem_ctrls.numStayWriteState                128                       # Number of times bus staying in WRITE state (Count)
system.mem_ctrls.readReqs                        1400                       # Number of read requests accepted (Count)
system.mem_ctrls.writeReqs                        155                       # Number of write requests accepted (Count)
system.mem_ctrls.readBursts                      1400                       # Number of controller read bursts, including those serviced by the write queue (Count)
system.mem_ctrls.writeBursts                      155                       # Number of controller write bursts, including those merged in the write queue (Count)
system.mem_ctrls.servicedByWrQ                     13                       # Number of controller read bursts serviced by the write queue (Count)
system.mem_ctrls.mergedWrBursts                     0                       # Number of controller write bursts merged with an existing one (Count)
system.mem_ctrls.neitherReadNorWriteReqs            0                       # Number of requests that are neither read nor write (Count)
system.mem_ctrls.avgRdQLen                       1.00                       # Average read queue length when enqueuing ((Count/Tick))
system.mem_ctrls.avgWrQLen                      16.43                       # Average write queue length when enqueuing ((Count/Tick))
system.mem_ctrls.numRdRetry                         0                       # Number of times read queue was full causing retry (Count)
system.mem_ctrls.numWrRetry                         0                       # Number of times write queue was full causing retry (Count)
system.mem_ctrls.readPktSize::0                     0                       # Read request sizes (log2) (Count)
system.mem_ctrls.readPktSize::1                     0                       # Read request sizes (log2) (Count)
system.mem_ctrls.readPktSize::2                     0                       # Read request sizes (log2) (Count)
system.mem_ctrls.readPktSize::3                     0                       # Read request sizes (log2) (Count)
system.mem_ctrls.readPktSize::4                     0                       # Read request sizes (log2) (Count)
system.mem_ctrls.readPktSize::5                     0                       # Read request sizes (log2) (Count)
system.mem_ctrls.readPktSize::6                  1400                       # Read request sizes (log2) (Count)
system.mem_ctrls.writePktSize::0                    0                       # Write request sizes (log2) (Count)
system.mem_ctrls.writePktSize::1                    0                       # Write request sizes (log2) (Count)
system.mem_ctrls.writePktSize::2                    0                       # Write request sizes (log2) (Count)
system.mem_ctrls.writePktSize::3                    0                       # Write request sizes (log2) (Count)
system.mem_ctrls.writePktSize::4                    0                       # Write request sizes (log2) (Count)
system.mem_ctrls.writePktSize::5                    0                       # Write request sizes (log2) (Count)
system.mem_ctrls.writePktSize::6                  155                       # Write request sizes (log2) (Count)
system.mem_ctrls.rdQLenPdf::0                    1387                       # What read queue length does an incoming req see (Count)
system.mem_ctrls.rdQLenPdf::1                       0                       # What read queue length does an incoming req see (Count)
system.mem_ctrls.rdQLenPdf::2                       0                       # What read queue length does an incoming req see (Count)
system.mem_ctrls.rdQLenPdf::3                       0                       # What read queue length does an incoming req see (Count)
system.mem_ctrls.rdQLenPdf::4                       0                       # What read queue length does an incoming req see (Count)
system.mem_ctrls.rdQLenPdf::5                       0                       # What read queue length does an incoming req see (Count)
system.mem_ctrls.rdQLenPdf::6                       0                       # What read queue length does an incoming req see (Count)
system.mem_ctrls.rdQLenPdf::7                       0                       # What read queue length does an incoming req see (Count)
system.mem_ctrls.rdQLenPdf::8                       0                       # What read queue length does an incoming req see (Count)
system.mem_ctrls.rdQLenPdf::9                       0                       # What read queue length does an incoming req see (Count)
system.mem_ctrls.rdQLenPdf::10                      0                       # What read queue length does an incoming req see (Count)
system.mem_ctrls.rdQLenPdf::11                      0                       # What read queue length does an incoming req see (Count)
system.mem_ctrls.rdQLenPdf::12                      0                       # What read queue length does an incoming req see (Count)
system.mem_ctrls.rdQLenPdf::13                      0                       # What read queue length does an incoming req see (Count)
system.mem_ctrls.rdQLenPdf::14                      0                       # What read queue length does an incoming req see (Count)
system.mem_ctrls.rdQLenPdf::15                      0                       # What read queue length does an incoming req see (Count)
system.mem_ctrls.rdQLenPdf::16                      0                       # What read queue length does an incoming req see (Count)
system.mem_ctrls.rdQLenPdf::17                      0                       # What read queue length does an incoming req see (Count)
system.mem_ctrls.rdQLenPdf::18                      0                       # What read queue length does an incoming req see (Count)
system.mem_ctrls.rdQLenPdf::19                      0                       # What read queue length does an incoming req see (Count)
system.mem_ctrls.rdQLenPdf::20                      0                       # What read queue length does an incoming req see (Count)
system.mem_ctrls.rdQLenPdf::21                      0                       # What read queue length does an incoming req see (Count)
system.mem_ctrls.rdQLenPdf::22                      0                       # What read queue length does an incoming req see (Count)
system.mem_ctrls.rdQLenPdf::23                      0                       # What read queue length does an incoming req see (Count)
system.mem_ctrls.rdQLenPdf::24                      0                       # What read queue length does an incoming req see (Count)
system.mem_ctrls.rdQLenPdf::25                      0                       # What read queue length does an incoming req see (Count)
system.mem_ctrls.rdQLenPdf::26                      0                       # What read queue length does an incoming req see (Count)
system.mem_ctrls.rdQLenPdf::27                      0                       # What read queue length does an incoming req see (Count)
system.mem_ctrls.rdQLenPdf::28                      0                       # What read queue length does an incoming req see (Count)
system.mem_ctrls.rdQLenPdf::29                      0                       # What read queue length does an incoming req see (Count)
system.mem_ctrls.rdQLenPdf::30                      0                       # What read queue length does an incoming req see (Count)
system.mem_ctrls.rdQLenPdf::31                      0                       # What read queue length does an incoming req see (Count)
system.mem_ctrls.wrQLenPdf::0                       1                       # What write queue length does an incoming req see (Count)
system.mem_ctrls.wrQLenPdf::1                       1                       # What write queue length does an incoming req see (Count)
system.mem_ctrls.wrQLenPdf::2                       1                       # What write queue length does an incoming req see (Count)
system.mem_ctrls.wrQLenPdf::3                       1                       # What write queue length does an incoming req see (Count)
system.mem_ctrls.wrQLenPdf::4                       1                       # What write queue length does an incoming req see (Count)
system.mem_ctrls.wrQLenPdf::5                       1                       # What write queue length does an incoming req see (Count)
system.mem_ctrls.wrQLenPdf::6                       1                       # What write queue length does an incoming req see (Count)
system.mem_ctrls.wrQLenPdf::7                       1                       # What write queue length does an incoming req see (Count)
system.mem_ctrls.wrQLenPdf::8                       1                       # What write queue length does an incoming req see (Count)
system.mem_ctrls.wrQLenPdf::9                       1                       # What write queue length does an incoming req see (Count)
system.mem_ctrls.wrQLenPdf::10                      1                       # What write queue length does an incoming req see (Count)
system.mem_ctrls.wrQLenPdf::11                      1                       # What write queue length does an incoming req see (Count)
system.mem_ctrls.wrQLenPdf::12                      1                       # What write queue length does an incoming req see (Count)
system.mem_ctrls.wrQLenPdf::13                      1                       # What write queue length does an incoming req see (Count)
system.mem_ctrls.wrQLenPdf::14                      1                       # What write queue length does an incoming req see (Count)
system.mem_ctrls.wrQLenPdf::15                      5                       # What write queue length does an incoming req see (Count)
system.mem_ctrls.wrQLenPdf::16                      5                       # What write queue length does an incoming req see (Count)
system.mem_ctrls.wrQLenPdf::17                      9                       # What write queue length does an incoming req see (Count)
system.mem_ctrls.wrQLenPdf::18                      9                       # What write queue length does an incoming req see (Count)
system.mem_ctrls.wrQLenPdf::19                      8                       # What write queue length does an incoming req see (Count)
system.mem_ctrls.wrQLenPdf::20                      8                       # What write queue length does an incoming req see (Count)
system.mem_ctrls.wrQLenPdf::21                      8                       # What write queue length does an incoming req see (Count)
system.mem_ctrls.wrQLenPdf::22                      8                       # What write queue length does an incoming req see (Count)
system.mem_ctrls.wrQLenPdf::23                      8                       # What write queue length does an incoming req see (Count)
system.mem_ctrls.wrQLenPdf::24                      8                       # What write queue length does an incoming req see (Count)
system.mem_ctrls.wrQLenPdf::25                      8                       # What write queue length does an incoming req see (Count)
system.mem_ctrls.wrQLenPdf::26                      8                       # What write queue length does an incoming req see (Count)
system.mem_ctrls.wrQLenPdf::27                      8                       # What write queue length does an incoming req see (Count)
system.mem_ctrls.wrQLenPdf::28                      8                       # What write queue length does an incoming req see (Count)
system.mem_ctrls.wrQLenPdf::29                      8                       # What write queue length does an incoming req see (Count)
system.mem_ctrls.wrQLenPdf::30                      8                       # What write queue length does an incoming req see (Count)
system.mem_ctrls.wrQLenPdf::31                      8                       # What write queue length does an incoming req see (Count)
system.mem_ctrls.wrQLenPdf::32                      8                       # What write queue length does an incoming req see (Count)
system.mem_ctrls.wrQLenPdf::33                      0                       # What write queue length does an incoming req see (Count)
system.mem_ctrls.wrQLenPdf::34                      0                       # What write queue length does an incoming req see (Count)
system.mem_ctrls.wrQLenPdf::35                      0                       # What write queue length does an incoming req see (Count)
system.mem_ctrls.wrQLenPdf::36                      0                       # What write queue length does an incoming req see (Count)
system.mem_ctrls.wrQLenPdf::37                      0                       # What write queue length does an incoming req see (Count)
system.mem_ctrls.wrQLenPdf::38                      0                       # What write queue length does an incoming req see (Count)
system.mem_ctrls.wrQLenPdf::39                      0                       # What write queue length does an incoming req see (Count)
system.mem_ctrls.wrQLenPdf::40                      0                       # What write queue length does an incoming req see (Count)
system.mem_ctrls.wrQLenPdf::41                      0                       # What write queue length does an incoming req see (Count)
system.mem_ctrls.wrQLenPdf::42                      0                       # What write queue length does an incoming req see (Count)
system.mem_ctrls.wrQLenPdf::43                      0                       # What write queue length does an incoming req see (Count)
system.mem_ctrls.wrQLenPdf::44                      0                       # What write queue length does an incoming req see (Count)
system.mem_ctrls.wrQLenPdf::45                      0                       # What write queue length does an incoming req see (Count)
system.mem_ctrls.wrQLenPdf::46                      0                       # What write queue length does an incoming req see (Count)
system.mem_ctrls.wrQLenPdf::47                      0                       # What write queue length does an incoming req see (Count)
system.mem_ctrls.wrQLenPdf::48                      0                       # What write queue length does an incoming req see (Count)
system.mem_ctrls.wrQLenPdf::49                      0                       # What write queue length does an incoming req see (Count)
system.mem_ctrls.wrQLenPdf::50                      0                       # What write queue length does an incoming req see (Count)
system.mem_ctrls.wrQLenPdf::51                      0                       # What write queue length does an incoming req see (Count)
system.mem_ctrls.wrQLenPdf::52                      0                       # What write queue length does an incoming req see (Count)
system.mem_ctrls.wrQLenPdf::53                      0                       # What write queue length does an incoming req see (Count)
system.mem_ctrls.wrQLenPdf::54                      0                       # What write queue length does an incoming req see (Count)
system.mem_ctrls.wrQLenPdf::55                      0                       # What write queue length does an incoming req see (Count)
system.mem_ctrls.wrQLenPdf::56                      0                       # What write queue length does an incoming req see (Count)
system.mem_ctrls.wrQLenPdf::57                      0                       # What write queue length does an incoming req see (Count)
system.mem_ctrls.wrQLenPdf::58                      0                       # What write queue length does an incoming req see (Count)
system.mem_ctrls.wrQLenPdf::59                      0                       # What write queue length does an incoming req see (Count)
system.mem_ctrls.wrQLenPdf::60                      0                       # What write queue length does an incoming req see (Count)
system.mem_ctrls.wrQLenPdf::61                      0                       # What write queue length does an incoming req see (Count)
system.mem_ctrls.wrQLenPdf::62                      0                       # What write queue length does an incoming req see (Count)
system.mem_ctrls.wrQLenPdf::63                      0                       # What write queue length does an incoming req see (Count)
system.mem_ctrls.rdPerTurnAround::samples            8                       # Reads before turning the bus around for writes (Count)
system.mem_ctrls.rdPerTurnAround::mean     172.500000                       # Reads before turning the bus around for writes (Count)
system.mem_ctrls.rdPerTurnAround::gmean     96.877787                       # Reads before turning the bus around for writes (Count)
system.mem_ctrls.rdPerTurnAround::stdev    214.435471                       # Reads before turning the bus around for writes (Count)
system.mem_ctrls.rdPerTurnAround::0-31              1     12.50%     12.50% # Reads before turning the bus around for writes (Count)
system.mem_ctrls.rdPerTurnAround::32-63             3     37.50%     50.00% # Reads before turning the bus around for writes (Count)
system.mem_ctrls.rdPerTurnAround::64-95             1     12.50%     62.50% # Reads before turning the bus around for writes (Count)
system.mem_ctrls.rdPerTurnAround::96-127            1     12.50%     75.00% # Reads before turning the bus around for writes (Count)
system.mem_ctrls.rdPerTurnAround::320-351            1     12.50%     87.50% # Reads before turning the bus around for writes (Count)
system.mem_ctrls.rdPerTurnAround::640-671            1     12.50%    100.00% # Reads before turning the bus around for writes (Count)
system.mem_ctrls.rdPerTurnAround::total             8                       # Reads before turning the bus around for writes (Count)
system.mem_ctrls.wrPerTurnAround::samples            8                       # Writes before turning the bus around for reads (Count)
system.mem_ctrls.wrPerTurnAround::mean             17                       # Writes before turning the bus around for reads (Count)
system.mem_ctrls.wrPerTurnAround::gmean     16.970563                       # Writes before turning the bus around for reads (Count)
system.mem_ctrls.wrPerTurnAround::stdev      1.069045                       # Writes before turning the bus around for reads (Count)
system.mem_ctrls.wrPerTurnAround::16                4     50.00%     50.00% # Writes before turning the bus around for reads (Count)
system.mem_ctrls.wrPerTurnAround::18                4     50.00%    100.00% # Writes before turning the bus around for reads (Count)
system.mem_ctrls.wrPerTurnAround::total             8                       # Writes before turning the bus around for reads (Count)
system.mem_ctrls.bytesReadWrQ                     832                       # Total number of bytes read from write queue (Byte)
system.mem_ctrls.bytesReadSys                   89600                       # Total read bytes from the system interface side (Byte)
system.mem_ctrls.bytesWrittenSys                 9920                       # Total written bytes from the system interface side (Byte)
system.mem_ctrls.avgRdBWSys              28927552.94533177                       # Average system read bandwidth in Byte/s ((Byte/Second))
system.mem_ctrls.avgWrBWSys              3202693.36180459                       # Average system write bandwidth in Byte/s ((Byte/Second))
system.mem_ctrls.totGap                    3097331000                       # Total gap between requests (Tick)
system.mem_ctrls.avgGap                    1991852.73                       # Average gap between requests ((Tick/Count))
system.mem_ctrls.requestorReadBytes::cpu.inst        23808                       # Per-requestor bytes read from memory (Byte)
system.mem_ctrls.requestorReadBytes::cpu.data        64960                       # Per-requestor bytes read from memory (Byte)
system.mem_ctrls.requestorWriteBytes::writebacks         8704                       # Per-requestor bytes write to memory (Byte)
system.mem_ctrls.requestorReadRate::cpu.inst 7686464.068331012502                       # Per-requestor bytes read from memory rate ((Byte/Second))
system.mem_ctrls.requestorReadRate::cpu.data 20972475.885365530849                       # Per-requestor bytes read from memory rate ((Byte/Second))
system.mem_ctrls.requestorWriteRate::writebacks 2810105.143260800280                       # Per-requestor bytes write to memory rate ((Byte/Second))
system.mem_ctrls.requestorReadAccesses::cpu.inst          381                       # Per-requestor read serviced memory accesses (Count)
system.mem_ctrls.requestorReadAccesses::cpu.data         1019                       # Per-requestor read serviced memory accesses (Count)
system.mem_ctrls.requestorWriteAccesses::writebacks          155                       # Per-requestor write serviced memory accesses (Count)
system.mem_ctrls.requestorReadTotalLat::cpu.inst      8953000                       # Per-requestor read total memory access latency (Tick)
system.mem_ctrls.requestorReadTotalLat::cpu.data     24930250                       # Per-requestor read total memory access latency (Tick)
system.mem_ctrls.requestorWriteTotalLat::writebacks  47829960500                       # Per-requestor write total memory access latency (Tick)
system.mem_ctrls.requestorReadAvgLat::cpu.inst     23498.69                       # Per-requestor read average memory access latency ((Tick/Count))
system.mem_ctrls.requestorReadAvgLat::cpu.data     24465.41                       # Per-requestor read average memory access latency ((Tick/Count))
system.mem_ctrls.requestorWriteAvgLat::writebacks 308580390.32                       # Per-requestor write average memory access latency ((Tick/Count))
system.mem_ctrls.dram.bytesRead::cpu.inst        24384                       # Number of bytes read from this memory (Byte)
system.mem_ctrls.dram.bytesRead::cpu.data        65216                       # Number of bytes read from this memory (Byte)
system.mem_ctrls.dram.bytesRead::total          89600                       # Number of bytes read from this memory (Byte)
system.mem_ctrls.dram.bytesInstRead::cpu.inst        24384                       # Number of instructions bytes read from this memory (Byte)
system.mem_ctrls.dram.bytesInstRead::total        24384                       # Number of instructions bytes read from this memory (Byte)
system.mem_ctrls.dram.bytesWritten::writebacks         4672                       # Number of bytes written to this memory (Byte)
system.mem_ctrls.dram.bytesWritten::total         4672                       # Number of bytes written to this memory (Byte)
system.mem_ctrls.dram.numReads::cpu.inst          381                       # Number of read requests responded to by this memory (Count)
system.mem_ctrls.dram.numReads::cpu.data         1019                       # Number of read requests responded to by this memory (Count)
system.mem_ctrls.dram.numReads::total            1400                       # Number of read requests responded to by this memory (Count)
system.mem_ctrls.dram.numWrites::writebacks           73                       # Number of write requests responded to by this memory (Count)
system.mem_ctrls.dram.numWrites::total             73                       # Number of write requests responded to by this memory (Count)
system.mem_ctrls.dram.bwRead::cpu.inst        7872427                       # Total read bandwidth from this memory ((Byte/Second))
system.mem_ctrls.dram.bwRead::cpu.data       21055126                       # Total read bandwidth from this memory ((Byte/Second))
system.mem_ctrls.dram.bwRead::total          28927553                       # Total read bandwidth from this memory ((Byte/Second))
system.mem_ctrls.dram.bwInstRead::cpu.inst      7872427                       # Instruction read bandwidth from this memory ((Byte/Second))
system.mem_ctrls.dram.bwInstRead::total       7872427                       # Instruction read bandwidth from this memory ((Byte/Second))
system.mem_ctrls.dram.bwWrite::writebacks      1508365                       # Write bandwidth from this memory ((Byte/Second))
system.mem_ctrls.dram.bwWrite::total          1508365                       # Write bandwidth from this memory ((Byte/Second))
system.mem_ctrls.dram.bwTotal::writebacks      1508365                       # Total bandwidth to/from this memory ((Byte/Second))
system.mem_ctrls.dram.bwTotal::cpu.inst       7872427                       # Total bandwidth to/from this memory ((Byte/Second))
system.mem_ctrls.dram.bwTotal::cpu.data      21055126                       # Total bandwidth to/from this memory ((Byte/Second))
system.mem_ctrls.dram.bwTotal::total         30435918                       # Total bandwidth to/from this memory ((Byte/Second))
system.mem_ctrls.dram.readBursts                 1387                       # Number of DRAM read bursts (Count)
system.mem_ctrls.dram.writeBursts                 136                       # Number of DRAM write bursts (Count)
system.mem_ctrls.dram.perBankRdBursts::0          196                       # Per bank write bursts (Count)
system.mem_ctrls.dram.perBankRdBursts::1          147                       # Per bank write bursts (Count)
system.mem_ctrls.dram.perBankRdBursts::2          105                       # Per bank write bursts (Count)
system.mem_ctrls.dram.perBankRdBursts::3          124                       # Per bank write bursts (Count)
system.mem_ctrls.dram.perBankRdBursts::4          147                       # Per bank write bursts (Count)
system.mem_ctrls.dram.perBankRdBursts::5          106                       # Per bank write bursts (Count)
system.mem_ctrls.dram.perBankRdBursts::6          112                       # Per bank write bursts (Count)
system.mem_ctrls.dram.perBankRdBursts::7           36                       # Per bank write bursts (Count)
system.mem_ctrls.dram.perBankRdBursts::8           81                       # Per bank write bursts (Count)
system.mem_ctrls.dram.perBankRdBursts::9           99                       # Per bank write bursts (Count)
system.mem_ctrls.dram.perBankRdBursts::10           12                       # Per bank write bursts (Count)
system.mem_ctrls.dram.perBankRdBursts::11           20                       # Per bank write bursts (Count)
system.mem_ctrls.dram.perBankRdBursts::12           16                       # Per bank write bursts (Count)
system.mem_ctrls.dram.perBankRdBursts::13           74                       # Per bank write bursts (Count)
system.mem_ctrls.dram.perBankRdBursts::14           13                       # Per bank write bursts (Count)
system.mem_ctrls.dram.perBankRdBursts::15           99                       # Per bank write bursts (Count)
system.mem_ctrls.dram.perBankWrBursts::0           15                       # Per bank write bursts (Count)
system.mem_ctrls.dram.perBankWrBursts::1            4                       # Per bank write bursts (Count)
system.mem_ctrls.dram.perBankWrBursts::2            5                       # Per bank write bursts (Count)
system.mem_ctrls.dram.perBankWrBursts::3            2                       # Per bank write bursts (Count)
system.mem_ctrls.dram.perBankWrBursts::4           23                       # Per bank write bursts (Count)
system.mem_ctrls.dram.perBankWrBursts::5            0                       # Per bank write bursts (Count)
system.mem_ctrls.dram.perBankWrBursts::6            4                       # Per bank write bursts (Count)
system.mem_ctrls.dram.perBankWrBursts::7            1                       # Per bank write bursts (Count)
system.mem_ctrls.dram.perBankWrBursts::8            6                       # Per bank write bursts (Count)
system.mem_ctrls.dram.perBankWrBursts::9           40                       # Per bank write bursts (Count)
system.mem_ctrls.dram.perBankWrBursts::10            2                       # Per bank write bursts (Count)
system.mem_ctrls.dram.perBankWrBursts::11            5                       # Per bank write bursts (Count)
system.mem_ctrls.dram.perBankWrBursts::12            4                       # Per bank write bursts (Count)
system.mem_ctrls.dram.perBankWrBursts::13           25                       # Per bank write bursts (Count)
system.mem_ctrls.dram.perBankWrBursts::14            0                       # Per bank write bursts (Count)
system.mem_ctrls.dram.perBankWrBursts::15            0                       # Per bank write bursts (Count)
system.mem_ctrls.dram.totQLat                 7877000                       # Total ticks spent queuing (Tick)
system.mem_ctrls.dram.totBusLat               6935000                       # Total ticks spent in databus transfers (Tick)
system.mem_ctrls.dram.totMemAccLat           33883250                       # Total ticks spent from burst creation until serviced by the DRAM (Tick)
system.mem_ctrls.dram.avgQLat                 5679.16                       # Average queueing delay per DRAM burst ((Tick/Count))
system.mem_ctrls.dram.avgBusLat               5000.00                       # Average bus latency per DRAM burst ((Tick/Count))
system.mem_ctrls.dram.avgMemAccLat           24429.16                       # Average memory access latency per DRAM burst ((Tick/Count))
system.mem_ctrls.dram.readRowHits                1202                       # Number of row buffer hits during reads (Count)
system.mem_ctrls.dram.writeRowHits                112                       # Number of row buffer hits during writes (Count)
system.mem_ctrls.dram.readRowHitRate            86.66                       # Row buffer hit rate for reads (Ratio)
system.mem_ctrls.dram.writeRowHitRate           82.35                       # Row buffer hit rate for writes (Ratio)
system.mem_ctrls.dram.bytesPerActivate::samples          198                       # Bytes accessed per row activation (Byte)
system.mem_ctrls.dram.bytesPerActivate::mean   477.090909                       # Bytes accessed per row activation (Byte)
system.mem_ctrls.dram.bytesPerActivate::gmean   311.303974                       # Bytes accessed per row activation (Byte)
system.mem_ctrls.dram.bytesPerActivate::stdev   374.989816                       # Bytes accessed per row activation (Byte)
system.mem_ctrls.dram.bytesPerActivate::0-127           33     16.67%     16.67% # Bytes accessed per row activation (Byte)
system.mem_ctrls.dram.bytesPerActivate::128-255           43     21.72%     38.38% # Bytes accessed per row activation (Byte)
system.mem_ctrls.dram.bytesPerActivate::256-383           24     12.12%     50.51% # Bytes accessed per row activation (Byte)
system.mem_ctrls.dram.bytesPerActivate::384-511           14      7.07%     57.58% # Bytes accessed per row activation (Byte)
system.mem_ctrls.dram.bytesPerActivate::512-639           12      6.06%     63.64% # Bytes accessed per row activation (Byte)
system.mem_ctrls.dram.bytesPerActivate::640-767           14      7.07%     70.71% # Bytes accessed per row activation (Byte)
system.mem_ctrls.dram.bytesPerActivate::768-895            4      2.02%     72.73% # Bytes accessed per row activation (Byte)
system.mem_ctrls.dram.bytesPerActivate::896-1023           10      5.05%     77.78% # Bytes accessed per row activation (Byte)
system.mem_ctrls.dram.bytesPerActivate::1024-1151           44     22.22%    100.00% # Bytes accessed per row activation (Byte)
system.mem_ctrls.dram.bytesPerActivate::total          198                       # Bytes accessed per row activation (Byte)
system.mem_ctrls.dram.bytesRead                 88768                       # Total bytes read (Byte)
system.mem_ctrls.dram.bytesWritten               8704                       # Total bytes written (Byte)
system.mem_ctrls.dram.avgRdBW               28.658940                       # Average DRAM read bandwidth in MiBytes/s ((Byte/Second))
system.mem_ctrls.dram.avgWrBW                2.810105                       # Average DRAM write bandwidth in MiBytes/s ((Byte/Second))
system.mem_ctrls.dram.peakBW                 12800.00                       # Theoretical peak bandwidth in MiByte/s ((Byte/Second))
system.mem_ctrls.dram.busUtil                    0.25                       # Data bus utilization in percentage (Ratio)
system.mem_ctrls.dram.busUtilRead                0.22                       # Data bus utilization in percentage for reads (Ratio)
system.mem_ctrls.dram.busUtilWrite               0.02                       # Data bus utilization in percentage for writes (Ratio)
system.mem_ctrls.dram.pageHitRate               86.28                       # Row buffer hit rate, read and write combined (Ratio)
system.mem_ctrls.dram.power_state.pwrStateResidencyTicks::UNDEFINED   3097393000                       # Cumulative time (in ticks) in various power states (Tick)
system.mem_ctrls.dram.rank0.actEnergy          842520                       # Energy for activate commands per rank (pJ) (Joule)
system.mem_ctrls.dram.rank0.preEnergy          425040                       # Energy for precharge commands per rank (pJ) (Joule)
system.mem_ctrls.dram.rank0.readEnergy        6947220                       # Energy for read commands per rank (pJ) (Joule)
system.mem_ctrls.dram.rank0.writeEnergy        281880                       # Energy for write commands per rank (pJ) (Joule)
system.mem_ctrls.dram.rank0.refreshEnergy 244012080.000000                       # Energy for refresh commands per rank (pJ) (Joule)
system.mem_ctrls.dram.rank0.actBackEnergy    143911890                       # Energy for active background per rank (pJ) (Joule)
system.mem_ctrls.dram.rank0.preBackEnergy   1068210240                       # Energy for precharge background per rank (pJ) (Joule)
system.mem_ctrls.dram.rank0.actPowerDownEnergy            0                       # Energy for active power-down per rank (pJ) (Joule)
system.mem_ctrls.dram.rank0.prePowerDownEnergy            0                       # Energy for precharge power-down per rank (pJ) (Joule)
system.mem_ctrls.dram.rank0.selfRefreshEnergy            0                       # Energy for self refresh per rank (pJ) (Joule)
system.mem_ctrls.dram.rank0.totalEnergy    1464630870                       # Total energy per rank (pJ) (Joule)
system.mem_ctrls.dram.rank0.averagePower   472.859230                       # Core power per rank (mW) (Watt)
system.mem_ctrls.dram.rank0.totalIdleTime            0                       # Total Idle time Per DRAM Rank (Tick)
system.mem_ctrls.dram.rank0.pwrStateTime::IDLE   2775664750                       # Time in different power states (Tick)
system.mem_ctrls.dram.rank0.pwrStateTime::REF    103220000                       # Time in different power states (Tick)
system.mem_ctrls.dram.rank0.pwrStateTime::SREF            0                       # Time in different power states (Tick)
system.mem_ctrls.dram.rank0.pwrStateTime::PRE_PDN            0                       # Time in different power states (Tick)
system.mem_ctrls.dram.rank0.pwrStateTime::ACT    218508250                       # Time in different power states (Tick)
system.mem_ctrls.dram.rank0.pwrStateTime::ACT_PDN            0                       # Time in different power states (Tick)
system.mem_ctrls.dram.rank1.actEnergy          649740                       # Energy for activate commands per rank (pJ) (Joule)
system.mem_ctrls.dram.rank1.preEnergy          326370                       # Energy for precharge commands per rank (pJ) (Joule)
system.mem_ctrls.dram.rank1.readEnergy        2955960                       # Energy for read commands per rank (pJ) (Joule)
system.mem_ctrls.dram.rank1.writeEnergy        428040                       # Energy for write commands per rank (pJ) (Joule)
system.mem_ctrls.dram.rank1.refreshEnergy 244012080.000000                       # Energy for refresh commands per rank (pJ) (Joule)
system.mem_ctrls.dram.rank1.actBackEnergy     85731420                       # Energy for active background per rank (pJ) (Joule)
system.mem_ctrls.dram.rank1.preBackEnergy   1117204320                       # Energy for precharge background per rank (pJ) (Joule)
system.mem_ctrls.dram.rank1.actPowerDownEnergy            0                       # Energy for active power-down per rank (pJ) (Joule)
system.mem_ctrls.dram.rank1.prePowerDownEnergy            0                       # Energy for precharge power-down per rank (pJ) (Joule)
system.mem_ctrls.dram.rank1.selfRefreshEnergy            0                       # Energy for self refresh per rank (pJ) (Joule)
system.mem_ctrls.dram.rank1.totalEnergy    1451307930                       # Total energy per rank (pJ) (Joule)
system.mem_ctrls.dram.rank1.averagePower   468.557890                       # Core power per rank (mW) (Watt)
system.mem_ctrls.dram.rank1.totalIdleTime            0                       # Total Idle time Per DRAM Rank (Tick)
system.mem_ctrls.dram.rank1.pwrStateTime::IDLE   2903687750                       # Time in different power states (Tick)
system.mem_ctrls.dram.rank1.pwrStateTime::REF    103220000                       # Time in different power states (Tick)
system.mem_ctrls.dram.rank1.pwrStateTime::SREF            0                       # Time in different power states (Tick)
system.mem_ctrls.dram.rank1.pwrStateTime::PRE_PDN            0                       # Time in different power states (Tick)
system.mem_ctrls.dram.rank1.pwrStateTime::ACT     90485250                       # Time in different power states (Tick)
system.mem_ctrls.dram.rank1.pwrStateTime::ACT_PDN            0                       # Time in different power states (Tick)
system.mem_ctrls.power_state.pwrStateResidencyTicks::UNDEFINED   3097393000                       # Cumulative time (in ticks) in various power states (Tick)
system.membus.transDist::ReadResp                1258                       # Transaction distribution (Count)
system.membus.transDist::WritebackDirty            73                       # Transaction distribution (Count)
system.membus.transDist::WritebackClean            82                       # Transaction distribution (Count)
system.membus.transDist::CleanEvict               111                       # Transaction distribution (Count)
system.membus.transDist::ReadExReq                142                       # Transaction distribution (Count)
system.membus.transDist::ReadExResp               142                       # Transaction distribution (Count)
system.membus.transDist::ReadCleanReq             381                       # Transaction distribution (Count)
system.membus.transDist::ReadSharedReq            877                       # Transaction distribution (Count)
system.membus.pktCount_system.cpu.icache.mem_side_port::system.mem_ctrls.port          844                       # Packet count per connected requestor and responder (Count)
system.membus.pktCount_system.cpu.dcache.mem_side_port::system.mem_ctrls.port         2222                       # Packet count per connected requestor and responder (Count)
system.membus.pktCount::total                    3066                       # Packet count per connected requestor and responder (Count)
system.membus.pktSize_system.cpu.icache.mem_side_port::system.mem_ctrls.port        29632                       # Cumulative packet size per connected requestor and responder (Byte)
system.membus.pktSize_system.cpu.dcache.mem_side_port::system.mem_ctrls.port        69888                       # Cumulative packet size per connected requestor and responder (Byte)
system.membus.pktSize::total                    99520                       # Cumulative packet size per connected requestor and responder (Byte)
system.membus.snoops                                0                       # Total snoops (Count)
system.membus.snoopTraffic                          0                       # Total snoop traffic (Byte)
system.membus.snoopFanout::samples               1400                       # Request fanout histogram (Count)
system.membus.snoopFanout::mean                     0                       # Request fanout histogram (Count)
system.membus.snoopFanout::stdev                    0                       # Request fanout histogram (Count)
system.membus.snoopFanout::underflows               0      0.00%      0.00% # Request fanout histogram (Count)
system.membus.snoopFanout::0                     1400    100.00%    100.00% # Request fanout histogram (Count)
system.membus.snoopFanout::1                        0      0.00%    100.00% # Request fanout histogram (Count)
system.membus.snoopFanout::2                        0      0.00%    100.00% # Request fanout histogram (Count)
system.membus.snoopFanout::3                        0      0.00%    100.00% # Request fanout histogram (Count)
system.membus.snoopFanout::4                        0      0.00%    100.00% # Request fanout histogram (Count)
system.membus.snoopFanout::overflows                0      0.00%    100.00% # Request fanout histogram (Count)
system.membus.snoopFanout::min_value                0                       # Request fanout histogram (Count)
system.membus.snoopFanout::max_value                0                       # Request fanout histogram (Count)
system.membus.snoopFanout::total                 1400                       # Request fanout histogram (Count)
system.membus.power_state.pwrStateResidencyTicks::UNDEFINED   3097393000                       # Cumulative time (in ticks) in various power states (Tick)
system.membus.reqLayer0.occupancy             2286000                       # Layer occupancy (ticks) (Tick)
system.membus.reqLayer0.utilization               0.0                       # Layer utilization (Ratio)
system.membus.respLayer1.occupancy            2021000                       # Layer occupancy (ticks) (Tick)
system.membus.respLayer1.utilization              0.0                       # Layer utilization (Ratio)
system.membus.respLayer2.occupancy            5377750                       # Layer occupancy (ticks) (Tick)
system.membus.respLayer2.utilization              0.0                       # Layer utilization (Ratio)
system.membus.snoop_filter.totRequests           1666                       # Total number of requests made to the snoop filter. (Count)
system.membus.snoop_filter.hitSingleRequests          266                       # Number of requests hitting in the snoop filter with a single holder of the requested data. (Count)
system.membus.snoop_filter.hitMultiRequests            0                       # Number of requests hitting in the snoop filter with multiple (>1) holders of the requested data. (Count)
system.membus.snoop_filter.totSnoops                0                       # Total number of snoops made to the snoop filter. (Count)
system.membus.snoop_filter.hitSingleSnoops            0                       # Number of snoops hitting in the snoop filter with a single holder of the requested data. (Count)
system.membus.snoop_filter.hitMultiSnoops            0                       # Number of snoops hitting in the snoop filter with multiple (>1) holders of the requested data. (Count)
system.voltage_domain.voltage                       1                       # Voltage in Volts (Volt)
system.workload.inst.arm                            0                       # number of arm instructions executed (Count)
system.workload.inst.quiesce                        0                       # number of quiesce instructions executed (Count)

---------- End Simulation Statistics   ----------
