
---------- Begin Simulation Statistics ----------
simSeconds                                   0.001681                       # Number of seconds simulated (Second)
simTicks                                   1681434000                       # Number of ticks simulated (Tick)
finalTick                                  1681434000                       # Number of ticks from beginning of simulation (restored from checkpoints and never reset) (Tick)
simFreq                                  1000000000000                       # The number of ticks per simulated second ((Tick/Second))
hostSeconds                                      0.42                       # Real time elapsed on the host (Second)
hostTickRate                               3967472658                       # The number of ticks simulated per host second (ticks/s) ((Tick/Second))
hostMemory                                     644896                       # Number of bytes of host memory used (Byte)
simInsts                                      1276436                       # Number of instructions simulated (Count)
simOps                                        1276483                       # Number of ops (including micro ops) simulated (Count)
hostInstRate                                  3011378                       # Simulator instruction rate (inst/s) ((Count/Second))
hostOpRate                                    3011469                       # Simulator op (including micro ops) rate (op/s) ((Count/Second))
system.clk_domain.clock                          1000                       # Clock period in ticks (Tick)
system.cpu.numCycles                          3362868                       # Number of cpu cycles simulated (Cycle)
system.cpu.cpi                               2.634541                       # CPI: cycles per instruction (core level) ((Cycle/Count))
system.cpu.ipc                               0.379573                       # IPC: instructions per cycle (core level) ((Count/Cycle))
system.cpu.numWorkItemsStarted                      0                       # Number of work items this cpu started (Count)
system.cpu.numWorkItemsCompleted                    0                       # Number of work items this cpu completed (Count)
system.cpu.commitStats0.numInsts              1276453                       # Number of instructions committed (thread level) (Count)
system.cpu.commitStats0.numOps                1276500                       # Number of ops (including micro ops) committed (thread level) (Count)
system.cpu.commitStats0.numInstsNotNOP              0                       # Number of instructions committed excluding NOPs or prefetches (Count)
system.cpu.commitStats0.numOpsNotNOP                0                       # Number of Ops (including micro ops) Simulated (Count)
system.cpu.commitStats0.cpi                  2.634541                       # CPI: cycles per instruction (thread level) ((Cycle/Count))
system.cpu.commitStats0.ipc                  0.379573                       # IPC: instructions per cycle (thread level) ((Count/Cycle))
system.cpu.commitStats0.numMemRefs                  0                       # Number of memory references committed (Count)
system.cpu.commitStats0.numFpInsts                 12                       # Number of float instructions (Count)
system.cpu.commitStats0.numIntInsts           1273668                       # Number of integer instructions (Count)
system.cpu.commitStats0.numLoadInsts           147552                       # Number of load instructions (Count)
system.cpu.commitStats0.numStoreInsts            6584                       # Number of store instructions (Count)
system.cpu.commitStats0.numVecInsts                 0                       # Number of vector instructions (Count)
system.cpu.commitStats0.committedInstType::No_OpClass         1095      0.09%      0.09% # Class of committed instruction. (Count)
system.cpu.commitStats0.committedInstType::IntAlu      1121257     87.84%     87.92% # Class of committed instruction. (Count)
system.cpu.commitStats0.committedInstType::IntMult            6      0.00%     87.92% # Class of committed instruction. (Count)
system.cpu.commitStats0.committedInstType::IntDiv            6      0.00%     87.93% # Class of committed instruction. (Count)
system.cpu.commitStats0.committedInstType::FloatAdd            0      0.00%     87.93% # Class of committed instruction. (Count)
system.cpu.commitStats0.committedInstType::FloatCmp            0      0.00%     87.93% # Class of committed instruction. (Count)
system.cpu.commitStats0.committedInstType::FloatCvt            0      0.00%     87.93% # Class of committed instruction. (Count)
system.cpu.commitStats0.committedInstType::FloatMult            0      0.00%     87.93% # Class of committed instruction. (Count)
system.cpu.commitStats0.committedInstType::FloatMultAcc            0      0.00%     87.93% # Class of committed instruction. (Count)
system.cpu.commitStats0.committedInstType::FloatDiv            0      0.00%     87.93% # Class of committed instruction. (Count)
system.cpu.commitStats0.committedInstType::FloatMisc            0      0.00%     87.93% # Class of committed instruction. (Count)
system.cpu.commitStats0.committedInstType::FloatSqrt            0      0.00%     87.93% # Class of committed instruction. (Count)
system.cpu.commitStats0.committedInstType::SimdAdd            0      0.00%     87.93% # Class of committed instruction. (Count)
system.cpu.commitStats0.committedInstType::SimdAddAcc            0      0.00%     87.93% # Class of committed instruction. (Count)
system.cpu.commitStats0.committedInstType::SimdAlu            0      0.00%     87.93% # Class of committed instruction. (Count)
system.cpu.commitStats0.committedInstType::SimdCmp            0      0.00%     87.93% # Class of committed instruction. (Count)
system.cpu.commitStats0.committedInstType::SimdCvt            0      0.00%     87.93% # Class of committed instruction. (Count)
system.cpu.commitStats0.committedInstType::SimdMisc            0      0.00%     87.93% # Class of committed instruction. (Count)
system.cpu.commitStats0.committedInstType::SimdMult            0      0.00%     87.93% # Class of committed instruction. (Count)
system.cpu.commitStats0.committedInstType::SimdMultAcc            0      0.00%     87.93% # Class of committed instruction. (Count)
system.cpu.commitStats0.committedInstType::SimdMatMultAcc            0      0.00%     87.93% # Class of committed instruction. (Count)
system.cpu.commitStats0.committedInstType::SimdShift            0      0.00%     87.93% # Class of committed instruction. (Count)
system.cpu.commitStats0.committedInstType::SimdShiftAcc            0      0.00%     87.93% # Class of committed instruction. (Count)
system.cpu.commitStats0.committedInstType::SimdDiv            0      0.00%     87.93% # Class of committed instruction. (Count)
system.cpu.commitStats0.committedInstType::SimdSqrt            0      0.00%     87.93% # Class of committed instruction. (Count)
system.cpu.commitStats0.committedInstType::SimdFloatAdd            0      0.00%     87.93% # Class of committed instruction. (Count)
system.cpu.commitStats0.committedInstType::SimdFloatAlu            0      0.00%     87.93% # Class of committed instruction. (Count)
system.cpu.commitStats0.committedInstType::SimdFloatCmp            0      0.00%     87.93% # Class of committed instruction. (Count)
system.cpu.commitStats0.committedInstType::SimdFloatCvt            0      0.00%     87.93% # Class of committed instruction. (Count)
system.cpu.commitStats0.committedInstType::SimdFloatDiv            0      0.00%     87.93% # Class of committed instruction. (Count)
system.cpu.commitStats0.committedInstType::SimdFloatMisc            0      0.00%     87.93% # Class of committed instruction. (Count)
system.cpu.commitStats0.committedInstType::SimdFloatMult            0      0.00%     87.93% # Class of committed instruction. (Count)
system.cpu.commitStats0.committedInstType::SimdFloatMultAcc            0      0.00%     87.93% # Class of committed instruction. (Count)
system.cpu.commitStats0.committedInstType::SimdFloatMatMultAcc            0      0.00%     87.93% # Class of committed instruction. (Count)
system.cpu.commitStats0.committedInstType::SimdFloatSqrt            0      0.00%     87.93% # Class of committed instruction. (Count)
system.cpu.commitStats0.committedInstType::SimdReduceAdd            0      0.00%     87.93% # Class of committed instruction. (Count)
system.cpu.commitStats0.committedInstType::SimdReduceAlu            0      0.00%     87.93% # Class of committed instruction. (Count)
system.cpu.commitStats0.committedInstType::SimdReduceCmp            0      0.00%     87.93% # Class of committed instruction. (Count)
system.cpu.commitStats0.committedInstType::SimdFloatReduceAdd            0      0.00%     87.93% # Class of committed instruction. (Count)
system.cpu.commitStats0.committedInstType::SimdFloatReduceCmp            0      0.00%     87.93% # Class of committed instruction. (Count)
system.cpu.commitStats0.committedInstType::SimdAes            0      0.00%     87.93% # Class of committed instruction. (Count)
system.cpu.commitStats0.committedInstType::SimdAesMix            0      0.00%     87.93% # Class of committed instruction. (Count)
system.cpu.commitStats0.committedInstType::SimdSha1Hash            0      0.00%     87.93% # Class of committed instruction. (Count)
system.cpu.commitStats0.committedInstType::SimdSha1Hash2            0      0.00%     87.93% # Class of committed instruction. (Count)
system.cpu.commitStats0.committedInstType::SimdSha256Hash            0      0.00%     87.93% # Class of committed instruction. (Count)
system.cpu.commitStats0.committedInstType::SimdSha256Hash2            0      0.00%     87.93% # Class of committed instruction. (Count)
system.cpu.commitStats0.committedInstType::SimdShaSigma2            0      0.00%     87.93% # Class of committed instruction. (Count)
system.cpu.commitStats0.committedInstType::SimdShaSigma3            0      0.00%     87.93% # Class of committed instruction. (Count)
system.cpu.commitStats0.committedInstType::SimdPredAlu            0      0.00%     87.93% # Class of committed instruction. (Count)
system.cpu.commitStats0.committedInstType::Matrix            0      0.00%     87.93% # Class of committed instruction. (Count)
system.cpu.commitStats0.committedInstType::MatrixMov            0      0.00%     87.93% # Class of committed instruction. (Count)
system.cpu.commitStats0.committedInstType::MatrixOP            0      0.00%     87.93% # Class of committed instruction. (Count)
system.cpu.commitStats0.committedInstType::MemRead       147565     11.56%     99.49% # Class of committed instruction. (Count)
system.cpu.commitStats0.committedInstType::MemWrite         6559      0.51%    100.00% # Class of committed instruction. (Count)
system.cpu.commitStats0.committedInstType::FloatMemRead            0      0.00%    100.00% # Class of committed instruction. (Count)
system.cpu.commitStats0.committedInstType::FloatMemWrite           12      0.00%    100.00% # Class of committed instruction. (Count)
system.cpu.commitStats0.committedInstType::IprAccess            0      0.00%    100.00% # Class of committed instruction. (Count)
system.cpu.commitStats0.committedInstType::InstPrefetch            0      0.00%    100.00% # Class of committed instruction. (Count)
system.cpu.commitStats0.committedInstType::VectorUnitStrideLoad            0      0.00%    100.00% # Class of committed instruction. (Count)
system.cpu.commitStats0.committedInstType::VectorUnitStrideStore            0      0.00%    100.00% # Class of committed instruction. (Count)
system.cpu.commitStats0.committedInstType::VectorUnitStrideMaskLoad            0      0.00%    100.00% # Class of committed instruction. (Count)
system.cpu.commitStats0.committedInstType::VectorUnitStrideMaskStore            0      0.00%    100.00% # Class of committed instruction. (Count)
system.cpu.commitStats0.committedInstType::VectorStridedLoad            0      0.00%    100.00% # Class of committed instruction. (Count)
system.cpu.commitStats0.committedInstType::VectorStridedStore            0      0.00%    100.00% # Class of committed instruction. (Count)
system.cpu.commitStats0.committedInstType::VectorIndexedLoad            0      0.00%    100.00% # Class of committed instruction. (Count)
system.cpu.commitStats0.committedInstType::VectorIndexedStore            0      0.00%    100.00% # Class of committed instruction. (Count)
system.cpu.commitStats0.committedInstType::VectorUnitStrideFaultOnlyFirstLoad            0      0.00%    100.00% # Class of committed instruction. (Count)
system.cpu.commitStats0.committedInstType::VectorWholeRegisterLoad            0      0.00%    100.00% # Class of committed instruction. (Count)
system.cpu.commitStats0.committedInstType::VectorWholeRegisterStore            0      0.00%    100.00% # Class of committed instruction. (Count)
system.cpu.commitStats0.committedInstType::VectorIntegerArith            0      0.00%    100.00% # Class of committed instruction. (Count)
system.cpu.commitStats0.committedInstType::VectorFloatArith            0      0.00%    100.00% # Class of committed instruction. (Count)
system.cpu.commitStats0.committedInstType::VectorFloatConvert            0      0.00%    100.00% # Class of committed instruction. (Count)
system.cpu.commitStats0.committedInstType::VectorIntegerReduce            0      0.00%    100.00% # Class of committed instruction. (Count)
system.cpu.commitStats0.committedInstType::VectorFloatReduce            0      0.00%    100.00% # Class of committed instruction. (Count)
system.cpu.commitStats0.committedInstType::VectorMisc            0      0.00%    100.00% # Class of committed instruction. (Count)
system.cpu.commitStats0.committedInstType::VectorIntegerExtension            0      0.00%    100.00% # Class of committed instruction. (Count)
system.cpu.commitStats0.committedInstType::VectorConfig            0      0.00%    100.00% # Class of committed instruction. (Count)
system.cpu.commitStats0.committedInstType::total      1276500                       # Class of committed instruction. (Count)
system.cpu.commitStats0.committedControl::IsControl       158269                       # Class of control type instructions committed (Count)
system.cpu.commitStats0.committedControl::IsDirectControl       154555                       # Class of control type instructions committed (Count)
system.cpu.commitStats0.committedControl::IsIndirectControl         3714                       # Class of control type instructions committed (Count)
system.cpu.commitStats0.committedControl::IsCondControl       149904                       # Class of control type instructions committed (Count)
system.cpu.commitStats0.committedControl::IsUncondControl         8365                       # Class of control type instructions committed (Count)
system.cpu.commitStats0.committedControl::IsCall         1942                       # Class of control type instructions committed (Count)
system.cpu.commitStats0.committedControl::IsReturn         1937                       # Class of control type instructions committed (Count)
system.cpu.dcache.demandHits::cpu.data         153059                       # number of demand (read+write) hits (Count)
system.cpu.dcache.demandHits::total            153059                       # number of demand (read+write) hits (Count)
system.cpu.dcache.overallHits::cpu.data        153059                       # number of overall hits (Count)
system.cpu.dcache.overallHits::total           153059                       # number of overall hits (Count)
system.cpu.dcache.demandMisses::cpu.data         1039                       # number of demand (read+write) misses (Count)
system.cpu.dcache.demandMisses::total            1039                       # number of demand (read+write) misses (Count)
system.cpu.dcache.overallMisses::cpu.data         1039                       # number of overall misses (Count)
system.cpu.dcache.overallMisses::total           1039                       # number of overall misses (Count)
system.cpu.dcache.demandMissLatency::cpu.data     58758000                       # number of demand (read+write) miss ticks (Tick)
system.cpu.dcache.demandMissLatency::total     58758000                       # number of demand (read+write) miss ticks (Tick)
system.cpu.dcache.overallMissLatency::cpu.data     58758000                       # number of overall miss ticks (Tick)
system.cpu.dcache.overallMissLatency::total     58758000                       # number of overall miss ticks (Tick)
system.cpu.dcache.demandAccesses::cpu.data       154098                       # number of demand (read+write) accesses (Count)
system.cpu.dcache.demandAccesses::total        154098                       # number of demand (read+write) accesses (Count)
system.cpu.dcache.overallAccesses::cpu.data       154098                       # number of overall (read+write) accesses (Count)
system.cpu.dcache.overallAccesses::total       154098                       # number of overall (read+write) accesses (Count)
system.cpu.dcache.demandMissRate::cpu.data     0.006742                       # miss rate for demand accesses (Ratio)
system.cpu.dcache.demandMissRate::total      0.006742                       # miss rate for demand accesses (Ratio)
system.cpu.dcache.overallMissRate::cpu.data     0.006742                       # miss rate for overall accesses (Ratio)
system.cpu.dcache.overallMissRate::total     0.006742                       # miss rate for overall accesses (Ratio)
system.cpu.dcache.demandAvgMissLatency::cpu.data 56552.454283                       # average overall miss latency in ticks ((Tick/Count))
system.cpu.dcache.demandAvgMissLatency::total 56552.454283                       # average overall miss latency in ticks ((Tick/Count))
system.cpu.dcache.overallAvgMissLatency::cpu.data 56552.454283                       # average overall miss latency ((Tick/Count))
system.cpu.dcache.overallAvgMissLatency::total 56552.454283                       # average overall miss latency ((Tick/Count))
system.cpu.dcache.blockedCycles::no_mshrs            0                       # number of cycles access was blocked (Cycle)
system.cpu.dcache.blockedCycles::no_targets            0                       # number of cycles access was blocked (Cycle)
system.cpu.dcache.blockedCauses::no_mshrs            0                       # number of times access was blocked (Count)
system.cpu.dcache.blockedCauses::no_targets            0                       # number of times access was blocked (Count)
system.cpu.dcache.avgBlocked::no_mshrs            nan                       # average number of cycles each access was blocked ((Cycle/Count))
system.cpu.dcache.avgBlocked::no_targets          nan                       # average number of cycles each access was blocked ((Cycle/Count))
system.cpu.dcache.writebacks::writebacks           84                       # number of writebacks (Count)
system.cpu.dcache.writebacks::total                84                       # number of writebacks (Count)
system.cpu.dcache.demandMshrMisses::cpu.data         1039                       # number of demand (read+write) MSHR misses (Count)
system.cpu.dcache.demandMshrMisses::total         1039                       # number of demand (read+write) MSHR misses (Count)
system.cpu.dcache.overallMshrMisses::cpu.data         1039                       # number of overall MSHR misses (Count)
system.cpu.dcache.overallMshrMisses::total         1039                       # number of overall MSHR misses (Count)
system.cpu.dcache.demandMshrMissLatency::cpu.data     57719000                       # number of demand (read+write) MSHR miss ticks (Tick)
system.cpu.dcache.demandMshrMissLatency::total     57719000                       # number of demand (read+write) MSHR miss ticks (Tick)
system.cpu.dcache.overallMshrMissLatency::cpu.data     57719000                       # number of overall MSHR miss ticks (Tick)
system.cpu.dcache.overallMshrMissLatency::total     57719000                       # number of overall MSHR miss ticks (Tick)
system.cpu.dcache.demandMshrMissRate::cpu.data     0.006742                       # mshr miss ratio for demand accesses (Ratio)
system.cpu.dcache.demandMshrMissRate::total     0.006742                       # mshr miss ratio for demand accesses (Ratio)
system.cpu.dcache.overallMshrMissRate::cpu.data     0.006742                       # mshr miss ratio for overall accesses (Ratio)
system.cpu.dcache.overallMshrMissRate::total     0.006742                       # mshr miss ratio for overall accesses (Ratio)
system.cpu.dcache.demandAvgMshrMissLatency::cpu.data 55552.454283                       # average overall mshr miss latency ((Tick/Count))
system.cpu.dcache.demandAvgMshrMissLatency::total 55552.454283                       # average overall mshr miss latency ((Tick/Count))
system.cpu.dcache.overallAvgMshrMissLatency::cpu.data 55552.454283                       # average overall mshr miss latency ((Tick/Count))
system.cpu.dcache.overallAvgMshrMissLatency::total 55552.454283                       # average overall mshr miss latency ((Tick/Count))
system.cpu.dcache.replacements                    209                       # number of replacements (Count)
system.cpu.dcache.LoadLockedReq.hits::cpu.data           10                       # number of LoadLockedReq hits (Count)
system.cpu.dcache.LoadLockedReq.hits::total           10                       # number of LoadLockedReq hits (Count)
system.cpu.dcache.LoadLockedReq.misses::cpu.data            1                       # number of LoadLockedReq misses (Count)
system.cpu.dcache.LoadLockedReq.misses::total            1                       # number of LoadLockedReq misses (Count)
system.cpu.dcache.LoadLockedReq.missLatency::cpu.data        83000                       # number of LoadLockedReq miss ticks (Tick)
system.cpu.dcache.LoadLockedReq.missLatency::total        83000                       # number of LoadLockedReq miss ticks (Tick)
system.cpu.dcache.LoadLockedReq.accesses::cpu.data           11                       # number of LoadLockedReq accesses(hits+misses) (Count)
system.cpu.dcache.LoadLockedReq.accesses::total           11                       # number of LoadLockedReq accesses(hits+misses) (Count)
system.cpu.dcache.LoadLockedReq.missRate::cpu.data     0.090909                       # miss rate for LoadLockedReq accesses (Ratio)
system.cpu.dcache.LoadLockedReq.missRate::total     0.090909                       # miss rate for LoadLockedReq accesses (Ratio)
system.cpu.dcache.LoadLockedReq.avgMissLatency::cpu.data        83000                       # average LoadLockedReq miss latency ((Tick/Count))
system.cpu.dcache.LoadLockedReq.avgMissLatency::total        83000                       # average LoadLockedReq miss latency ((Tick/Count))
system.cpu.dcache.LoadLockedReq.mshrMisses::cpu.data            1                       # number of LoadLockedReq MSHR misses (Count)
system.cpu.dcache.LoadLockedReq.mshrMisses::total            1                       # number of LoadLockedReq MSHR misses (Count)
system.cpu.dcache.LoadLockedReq.mshrMissLatency::cpu.data        82000                       # number of LoadLockedReq MSHR miss ticks (Tick)
system.cpu.dcache.LoadLockedReq.mshrMissLatency::total        82000                       # number of LoadLockedReq MSHR miss ticks (Tick)
system.cpu.dcache.LoadLockedReq.mshrMissRate::cpu.data     0.090909                       # mshr miss rate for LoadLockedReq accesses (Ratio)
system.cpu.dcache.LoadLockedReq.mshrMissRate::total     0.090909                       # mshr miss rate for LoadLockedReq accesses (Ratio)
system.cpu.dcache.LoadLockedReq.avgMshrMissLatency::cpu.data        82000                       # average LoadLockedReq mshr miss latency ((Tick/Count))
system.cpu.dcache.LoadLockedReq.avgMshrMissLatency::total        82000                       # average LoadLockedReq mshr miss latency ((Tick/Count))
system.cpu.dcache.ReadReq.hits::cpu.data       146661                       # number of ReadReq hits (Count)
system.cpu.dcache.ReadReq.hits::total          146661                       # number of ReadReq hits (Count)
system.cpu.dcache.ReadReq.misses::cpu.data          880                       # number of ReadReq misses (Count)
system.cpu.dcache.ReadReq.misses::total           880                       # number of ReadReq misses (Count)
system.cpu.dcache.ReadReq.missLatency::cpu.data     49934000                       # number of ReadReq miss ticks (Tick)
system.cpu.dcache.ReadReq.missLatency::total     49934000                       # number of ReadReq miss ticks (Tick)
system.cpu.dcache.ReadReq.accesses::cpu.data       147541                       # number of ReadReq accesses(hits+misses) (Count)
system.cpu.dcache.ReadReq.accesses::total       147541                       # number of ReadReq accesses(hits+misses) (Count)
system.cpu.dcache.ReadReq.missRate::cpu.data     0.005964                       # miss rate for ReadReq accesses (Ratio)
system.cpu.dcache.ReadReq.missRate::total     0.005964                       # miss rate for ReadReq accesses (Ratio)
system.cpu.dcache.ReadReq.avgMissLatency::cpu.data 56743.181818                       # average ReadReq miss latency ((Tick/Count))
system.cpu.dcache.ReadReq.avgMissLatency::total 56743.181818                       # average ReadReq miss latency ((Tick/Count))
system.cpu.dcache.ReadReq.mshrMisses::cpu.data          880                       # number of ReadReq MSHR misses (Count)
system.cpu.dcache.ReadReq.mshrMisses::total          880                       # number of ReadReq MSHR misses (Count)
system.cpu.dcache.ReadReq.mshrMissLatency::cpu.data     49054000                       # number of ReadReq MSHR miss ticks (Tick)
system.cpu.dcache.ReadReq.mshrMissLatency::total     49054000                       # number of ReadReq MSHR miss ticks (Tick)
system.cpu.dcache.ReadReq.mshrMissRate::cpu.data     0.005964                       # mshr miss rate for ReadReq accesses (Ratio)
system.cpu.dcache.ReadReq.mshrMissRate::total     0.005964                       # mshr miss rate for ReadReq accesses (Ratio)
system.cpu.dcache.ReadReq.avgMshrMissLatency::cpu.data 55743.181818                       # average ReadReq mshr miss latency ((Tick/Count))
system.cpu.dcache.ReadReq.avgMshrMissLatency::total 55743.181818                       # average ReadReq mshr miss latency ((Tick/Count))
system.cpu.dcache.StoreCondReq.hits::cpu.data           11                       # number of StoreCondReq hits (Count)
system.cpu.dcache.StoreCondReq.hits::total           11                       # number of StoreCondReq hits (Count)
system.cpu.dcache.StoreCondReq.accesses::cpu.data           11                       # number of StoreCondReq accesses(hits+misses) (Count)
system.cpu.dcache.StoreCondReq.accesses::total           11                       # number of StoreCondReq accesses(hits+misses) (Count)
system.cpu.dcache.SwapReq.hits::cpu.data           13                       # number of SwapReq hits (Count)
system.cpu.dcache.SwapReq.hits::total              13                       # number of SwapReq hits (Count)
system.cpu.dcache.SwapReq.accesses::cpu.data           13                       # number of SwapReq accesses(hits+misses) (Count)
system.cpu.dcache.SwapReq.accesses::total           13                       # number of SwapReq accesses(hits+misses) (Count)
system.cpu.dcache.WriteReq.hits::cpu.data         6398                       # number of WriteReq hits (Count)
system.cpu.dcache.WriteReq.hits::total           6398                       # number of WriteReq hits (Count)
system.cpu.dcache.WriteReq.misses::cpu.data          159                       # number of WriteReq misses (Count)
system.cpu.dcache.WriteReq.misses::total          159                       # number of WriteReq misses (Count)
system.cpu.dcache.WriteReq.missLatency::cpu.data      8824000                       # number of WriteReq miss ticks (Tick)
system.cpu.dcache.WriteReq.missLatency::total      8824000                       # number of WriteReq miss ticks (Tick)
system.cpu.dcache.WriteReq.accesses::cpu.data         6557                       # number of WriteReq accesses(hits+misses) (Count)
system.cpu.dcache.WriteReq.accesses::total         6557                       # number of WriteReq accesses(hits+misses) (Count)
system.cpu.dcache.WriteReq.missRate::cpu.data     0.024249                       # miss rate for WriteReq accesses (Ratio)
system.cpu.dcache.WriteReq.missRate::total     0.024249                       # miss rate for WriteReq accesses (Ratio)
system.cpu.dcache.WriteReq.avgMissLatency::cpu.data 55496.855346                       # average WriteReq miss latency ((Tick/Count))
system.cpu.dcache.WriteReq.avgMissLatency::total 55496.855346                       # average WriteReq miss latency ((Tick/Count))
system.cpu.dcache.WriteReq.mshrMisses::cpu.data          159                       # number of WriteReq MSHR misses (Count)
system.cpu.dcache.WriteReq.mshrMisses::total          159                       # number of WriteReq MSHR misses (Count)
system.cpu.dcache.WriteReq.mshrMissLatency::cpu.data      8665000                       # number of WriteReq MSHR miss ticks (Tick)
system.cpu.dcache.WriteReq.mshrMissLatency::total      8665000                       # number of WriteReq MSHR miss ticks (Tick)
system.cpu.dcache.WriteReq.mshrMissRate::cpu.data     0.024249                       # mshr miss rate for WriteReq accesses (Ratio)
system.cpu.dcache.WriteReq.mshrMissRate::total     0.024249                       # mshr miss rate for WriteReq accesses (Ratio)
system.cpu.dcache.WriteReq.avgMshrMissLatency::cpu.data 54496.855346                       # average WriteReq mshr miss latency ((Tick/Count))
system.cpu.dcache.WriteReq.avgMshrMissLatency::total 54496.855346                       # average WriteReq mshr miss latency ((Tick/Count))
system.cpu.dcache.power_state.pwrStateResidencyTicks::UNDEFINED   1681434000                       # Cumulative time (in ticks) in various power states (Tick)
system.cpu.dcache.tags.tagsInUse           769.466449                       # Average ticks per tags in use ((Tick/Count))
system.cpu.dcache.tags.totalRefs               154133                       # Total number of references to valid blocks. (Count)
system.cpu.dcache.tags.sampledRefs               1040                       # Sample count of references to valid blocks. (Count)
system.cpu.dcache.tags.avgRefs             148.204808                       # Average number of references to valid blocks. ((Count/Count))
system.cpu.dcache.tags.warmupTick              205000                       # The tick when the warmup percentage was hit. (Tick)
system.cpu.dcache.tags.occupancies::cpu.data   769.466449                       # Average occupied blocks per tick, per requestor ((Count/Tick))
system.cpu.dcache.tags.avgOccs::cpu.data     0.751432                       # Average percentage of cache occupancy ((Ratio/Tick))
system.cpu.dcache.tags.avgOccs::total        0.751432                       # Average percentage of cache occupancy ((Ratio/Tick))
system.cpu.dcache.tags.occupanciesTaskId::1024          831                       # Occupied blocks per task id (Count)
system.cpu.dcache.tags.ageTaskId_1024::0           18                       # Occupied blocks per task id, per block age (Count)
system.cpu.dcache.tags.ageTaskId_1024::1           45                       # Occupied blocks per task id, per block age (Count)
system.cpu.dcache.tags.ageTaskId_1024::3          768                       # Occupied blocks per task id, per block age (Count)
system.cpu.dcache.tags.ratioOccsTaskId::1024     0.811523                       # Ratio of occupied blocks and all blocks, per task id (Ratio)
system.cpu.dcache.tags.tagAccesses             309306                       # Number of tag accesses (Count)
system.cpu.dcache.tags.dataAccesses            309306                       # Number of data accesses (Count)
system.cpu.dcache.tags.power_state.pwrStateResidencyTicks::UNDEFINED   1681434000                       # Cumulative time (in ticks) in various power states (Tick)
system.cpu.dtb_walker_cache.blockedCycles::no_mshrs            0                       # number of cycles access was blocked (Cycle)
system.cpu.dtb_walker_cache.blockedCycles::no_targets            0                       # number of cycles access was blocked (Cycle)
system.cpu.dtb_walker_cache.blockedCauses::no_mshrs            0                       # number of times access was blocked (Count)
system.cpu.dtb_walker_cache.blockedCauses::no_targets            0                       # number of times access was blocked (Count)
system.cpu.dtb_walker_cache.avgBlocked::no_mshrs          nan                       # average number of cycles each access was blocked ((Cycle/Count))
system.cpu.dtb_walker_cache.avgBlocked::no_targets          nan                       # average number of cycles each access was blocked ((Cycle/Count))
system.cpu.dtb_walker_cache.replacements            0                       # number of replacements (Count)
system.cpu.dtb_walker_cache.power_state.pwrStateResidencyTicks::UNDEFINED   1681434000                       # Cumulative time (in ticks) in various power states (Tick)
system.cpu.dtb_walker_cache.tags.tagsInUse            0                       # Average ticks per tags in use ((Tick/Count))
system.cpu.dtb_walker_cache.tags.totalRefs            0                       # Total number of references to valid blocks. (Count)
system.cpu.dtb_walker_cache.tags.sampledRefs            0                       # Sample count of references to valid blocks. (Count)
system.cpu.dtb_walker_cache.tags.avgRefs          nan                       # Average number of references to valid blocks. ((Count/Count))
system.cpu.dtb_walker_cache.tags.warmupTick            0                       # The tick when the warmup percentage was hit. (Tick)
system.cpu.dtb_walker_cache.tags.tagAccesses            0                       # Number of tag accesses (Count)
system.cpu.dtb_walker_cache.tags.dataAccesses            0                       # Number of data accesses (Count)
system.cpu.dtb_walker_cache.tags.power_state.pwrStateResidencyTicks::UNDEFINED   1681434000                       # Cumulative time (in ticks) in various power states (Tick)
system.cpu.exec_context.thread_0.numMatAluAccesses            0                       # Number of matrix alu accesses (Count)
system.cpu.exec_context.thread_0.numCallsReturns         3879                       # Number of times a function call or return occured (Count)
system.cpu.exec_context.thread_0.numMatInsts            0                       # Number of matrix instructions (Count)
system.cpu.exec_context.thread_0.numIdleCycles     0.002000                       # Number of idle cycles (Cycle)
system.cpu.exec_context.thread_0.numBusyCycles 3362867.998000                       # Number of busy cycles (Cycle)
system.cpu.exec_context.thread_0.notIdleFraction     1.000000                       # Percentage of non-idle cycles (Ratio)
system.cpu.exec_context.thread_0.idleFraction     0.000000                       # Percentage of idle cycles (Ratio)
system.cpu.executeStats0.numInsts                   0                       # Number of executed instructions (Count)
system.cpu.executeStats0.numNop                     0                       # Number of nop insts executed (Count)
system.cpu.executeStats0.numBranches                0                       # Number of branches executed (Count)
system.cpu.executeStats0.numLoadInsts               0                       # Number of load instructions executed (Count)
system.cpu.executeStats0.numStoreInsts         154136                       # Number of stores executed (Count)
system.cpu.executeStats0.instRate                   0                       # Inst execution rate ((Count/Cycle))
system.cpu.executeStats0.numFpAluAccesses           12                       # Number of float alu accesses (Count)
system.cpu.executeStats0.numFpRegReads             12                       # Number of times the floating registers were read (Count)
system.cpu.executeStats0.numFpRegWrites             0                       # Number of times the floating registers were written (Count)
system.cpu.executeStats0.numIntAluAccesses      1273668                       # Number of integer alu accesses (Count)
system.cpu.executeStats0.numIntRegReads       1806019                       # Number of times the integer registers were read (Count)
system.cpu.executeStats0.numIntRegWrites      1113518                       # Number of times the integer registers were written (Count)
system.cpu.executeStats0.numMemRefs            154136                       # Number of memory refs (Count)
system.cpu.executeStats0.numMiscRegReads         2026                       # Number of times the Misc registers were read (Count)
system.cpu.executeStats0.numVecAluAccesses            0                       # Number of vector alu accesses (Count)
system.cpu.executeStats0.numDiscardedOps            0                       # Number of ops (including micro ops) which were discarded before commit (Count)
system.cpu.fetchStats0.numInsts               1276453                       # Number of instructions fetched (thread level) (Count)
system.cpu.fetchStats0.numOps                 1276500                       # Number of ops (including micro ops) fetched (thread level) (Count)
system.cpu.fetchStats0.fetchRate             0.379573                       # Number of inst fetches per cycle ((Count/Cycle))
system.cpu.fetchStats0.numBranches             158269                       # Number of branches fetched (Count)
system.cpu.fetchStats0.branchRate            0.047064                       # Number of branch fetches per cycle (Ratio)
system.cpu.fetchStats0.numFetchSuspends             0                       # Number of times Execute suspended instruction fetching (Count)
system.cpu.icache.demandHits::cpu.inst        1446323                       # number of demand (read+write) hits (Count)
system.cpu.icache.demandHits::total           1446323                       # number of demand (read+write) hits (Count)
system.cpu.icache.overallHits::cpu.inst       1446323                       # number of overall hits (Count)
system.cpu.icache.overallHits::total          1446323                       # number of overall hits (Count)
system.cpu.icache.demandMisses::cpu.inst          387                       # number of demand (read+write) misses (Count)
system.cpu.icache.demandMisses::total             387                       # number of demand (read+write) misses (Count)
system.cpu.icache.overallMisses::cpu.inst          387                       # number of overall misses (Count)
system.cpu.icache.overallMisses::total            387                       # number of overall misses (Count)
system.cpu.icache.demandMissLatency::cpu.inst     21557000                       # number of demand (read+write) miss ticks (Tick)
system.cpu.icache.demandMissLatency::total     21557000                       # number of demand (read+write) miss ticks (Tick)
system.cpu.icache.overallMissLatency::cpu.inst     21557000                       # number of overall miss ticks (Tick)
system.cpu.icache.overallMissLatency::total     21557000                       # number of overall miss ticks (Tick)
system.cpu.icache.demandAccesses::cpu.inst      1446710                       # number of demand (read+write) accesses (Count)
system.cpu.icache.demandAccesses::total       1446710                       # number of demand (read+write) accesses (Count)
system.cpu.icache.overallAccesses::cpu.inst      1446710                       # number of overall (read+write) accesses (Count)
system.cpu.icache.overallAccesses::total      1446710                       # number of overall (read+write) accesses (Count)
system.cpu.icache.demandMissRate::cpu.inst     0.000268                       # miss rate for demand accesses (Ratio)
system.cpu.icache.demandMissRate::total      0.000268                       # miss rate for demand accesses (Ratio)
system.cpu.icache.overallMissRate::cpu.inst     0.000268                       # miss rate for overall accesses (Ratio)
system.cpu.icache.overallMissRate::total     0.000268                       # miss rate for overall accesses (Ratio)
system.cpu.icache.demandAvgMissLatency::cpu.inst 55702.842377                       # average overall miss latency in ticks ((Tick/Count))
system.cpu.icache.demandAvgMissLatency::total 55702.842377                       # average overall miss latency in ticks ((Tick/Count))
system.cpu.icache.overallAvgMissLatency::cpu.inst 55702.842377                       # average overall miss latency ((Tick/Count))
system.cpu.icache.overallAvgMissLatency::total 55702.842377                       # average overall miss latency ((Tick/Count))
system.cpu.icache.blockedCycles::no_mshrs            0                       # number of cycles access was blocked (Cycle)
system.cpu.icache.blockedCycles::no_targets            0                       # number of cycles access was blocked (Cycle)
system.cpu.icache.blockedCauses::no_mshrs            0                       # number of times access was blocked (Count)
system.cpu.icache.blockedCauses::no_targets            0                       # number of times access was blocked (Count)
system.cpu.icache.avgBlocked::no_mshrs            nan                       # average number of cycles each access was blocked ((Cycle/Count))
system.cpu.icache.avgBlocked::no_targets          nan                       # average number of cycles each access was blocked ((Cycle/Count))
system.cpu.icache.writebacks::writebacks           80                       # number of writebacks (Count)
system.cpu.icache.writebacks::total                80                       # number of writebacks (Count)
system.cpu.icache.demandMshrMisses::cpu.inst          387                       # number of demand (read+write) MSHR misses (Count)
system.cpu.icache.demandMshrMisses::total          387                       # number of demand (read+write) MSHR misses (Count)
system.cpu.icache.overallMshrMisses::cpu.inst          387                       # number of overall MSHR misses (Count)
system.cpu.icache.overallMshrMisses::total          387                       # number of overall MSHR misses (Count)
system.cpu.icache.demandMshrMissLatency::cpu.inst     21170000                       # number of demand (read+write) MSHR miss ticks (Tick)
system.cpu.icache.demandMshrMissLatency::total     21170000                       # number of demand (read+write) MSHR miss ticks (Tick)
system.cpu.icache.overallMshrMissLatency::cpu.inst     21170000                       # number of overall MSHR miss ticks (Tick)
system.cpu.icache.overallMshrMissLatency::total     21170000                       # number of overall MSHR miss ticks (Tick)
system.cpu.icache.demandMshrMissRate::cpu.inst     0.000268                       # mshr miss ratio for demand accesses (Ratio)
system.cpu.icache.demandMshrMissRate::total     0.000268                       # mshr miss ratio for demand accesses (Ratio)
system.cpu.icache.overallMshrMissRate::cpu.inst     0.000268                       # mshr miss ratio for overall accesses (Ratio)
system.cpu.icache.overallMshrMissRate::total     0.000268                       # mshr miss ratio for overall accesses (Ratio)
system.cpu.icache.demandAvgMshrMissLatency::cpu.inst 54702.842377                       # average overall mshr miss latency ((Tick/Count))
system.cpu.icache.demandAvgMshrMissLatency::total 54702.842377                       # average overall mshr miss latency ((Tick/Count))
system.cpu.icache.overallAvgMshrMissLatency::cpu.inst 54702.842377                       # average overall mshr miss latency ((Tick/Count))
system.cpu.icache.overallAvgMshrMissLatency::total 54702.842377                       # average overall mshr miss latency ((Tick/Count))
system.cpu.icache.replacements                     80                       # number of replacements (Count)
system.cpu.icache.ReadReq.hits::cpu.inst      1446323                       # number of ReadReq hits (Count)
system.cpu.icache.ReadReq.hits::total         1446323                       # number of ReadReq hits (Count)
system.cpu.icache.ReadReq.misses::cpu.inst          387                       # number of ReadReq misses (Count)
system.cpu.icache.ReadReq.misses::total           387                       # number of ReadReq misses (Count)
system.cpu.icache.ReadReq.missLatency::cpu.inst     21557000                       # number of ReadReq miss ticks (Tick)
system.cpu.icache.ReadReq.missLatency::total     21557000                       # number of ReadReq miss ticks (Tick)
system.cpu.icache.ReadReq.accesses::cpu.inst      1446710                       # number of ReadReq accesses(hits+misses) (Count)
system.cpu.icache.ReadReq.accesses::total      1446710                       # number of ReadReq accesses(hits+misses) (Count)
system.cpu.icache.ReadReq.missRate::cpu.inst     0.000268                       # miss rate for ReadReq accesses (Ratio)
system.cpu.icache.ReadReq.missRate::total     0.000268                       # miss rate for ReadReq accesses (Ratio)
system.cpu.icache.ReadReq.avgMissLatency::cpu.inst 55702.842377                       # average ReadReq miss latency ((Tick/Count))
system.cpu.icache.ReadReq.avgMissLatency::total 55702.842377                       # average ReadReq miss latency ((Tick/Count))
system.cpu.icache.ReadReq.mshrMisses::cpu.inst          387                       # number of ReadReq MSHR misses (Count)
system.cpu.icache.ReadReq.mshrMisses::total          387                       # number of ReadReq MSHR misses (Count)
system.cpu.icache.ReadReq.mshrMissLatency::cpu.inst     21170000                       # number of ReadReq MSHR miss ticks (Tick)
system.cpu.icache.ReadReq.mshrMissLatency::total     21170000                       # number of ReadReq MSHR miss ticks (Tick)
system.cpu.icache.ReadReq.mshrMissRate::cpu.inst     0.000268                       # mshr miss rate for ReadReq accesses (Ratio)
system.cpu.icache.ReadReq.mshrMissRate::total     0.000268                       # mshr miss rate for ReadReq accesses (Ratio)
system.cpu.icache.ReadReq.avgMshrMissLatency::cpu.inst 54702.842377                       # average ReadReq mshr miss latency ((Tick/Count))
system.cpu.icache.ReadReq.avgMshrMissLatency::total 54702.842377                       # average ReadReq mshr miss latency ((Tick/Count))
system.cpu.icache.power_state.pwrStateResidencyTicks::UNDEFINED   1681434000                       # Cumulative time (in ticks) in various power states (Tick)
system.cpu.icache.tags.tagsInUse           201.462394                       # Average ticks per tags in use ((Tick/Count))
system.cpu.icache.tags.totalRefs              1446710                       # Total number of references to valid blocks. (Count)
system.cpu.icache.tags.sampledRefs                387                       # Sample count of references to valid blocks. (Count)
system.cpu.icache.tags.avgRefs            3738.268734                       # Average number of references to valid blocks. ((Count/Count))
system.cpu.icache.tags.warmupTick               77000                       # The tick when the warmup percentage was hit. (Tick)
system.cpu.icache.tags.occupancies::cpu.inst   201.462394                       # Average occupied blocks per tick, per requestor ((Count/Tick))
system.cpu.icache.tags.avgOccs::cpu.inst     0.393481                       # Average percentage of cache occupancy ((Ratio/Tick))
system.cpu.icache.tags.avgOccs::total        0.393481                       # Average percentage of cache occupancy ((Ratio/Tick))
system.cpu.icache.tags.occupanciesTaskId::1024          307                       # Occupied blocks per task id (Count)
system.cpu.icache.tags.ageTaskId_1024::0           77                       # Occupied blocks per task id, per block age (Count)
system.cpu.icache.tags.ageTaskId_1024::1           66                       # Occupied blocks per task id, per block age (Count)
system.cpu.icache.tags.ageTaskId_1024::3          164                       # Occupied blocks per task id, per block age (Count)
system.cpu.icache.tags.ratioOccsTaskId::1024     0.599609                       # Ratio of occupied blocks and all blocks, per task id (Ratio)
system.cpu.icache.tags.tagAccesses            2893807                       # Number of tag accesses (Count)
system.cpu.icache.tags.dataAccesses           2893807                       # Number of data accesses (Count)
system.cpu.icache.tags.power_state.pwrStateResidencyTicks::UNDEFINED   1681434000                       # Cumulative time (in ticks) in various power states (Tick)
system.cpu.itb_walker_cache.blockedCycles::no_mshrs            0                       # number of cycles access was blocked (Cycle)
system.cpu.itb_walker_cache.blockedCycles::no_targets            0                       # number of cycles access was blocked (Cycle)
system.cpu.itb_walker_cache.blockedCauses::no_mshrs            0                       # number of times access was blocked (Count)
system.cpu.itb_walker_cache.blockedCauses::no_targets            0                       # number of times access was blocked (Count)
system.cpu.itb_walker_cache.avgBlocked::no_mshrs          nan                       # average number of cycles each access was blocked ((Cycle/Count))
system.cpu.itb_walker_cache.avgBlocked::no_targets          nan                       # average number of cycles each access was blocked ((Cycle/Count))
system.cpu.itb_walker_cache.replacements            0                       # number of replacements (Count)
system.cpu.itb_walker_cache.power_state.pwrStateResidencyTicks::UNDEFINED   1681434000                       # Cumulative time (in ticks) in various power states (Tick)
system.cpu.itb_walker_cache.tags.tagsInUse            0                       # Average ticks per tags in use ((Tick/Count))
system.cpu.itb_walker_cache.tags.totalRefs            0                       # Total number of references to valid blocks. (Count)
system.cpu.itb_walker_cache.tags.sampledRefs            0                       # Sample count of references to valid blocks. (Count)
system.cpu.itb_walker_cache.tags.avgRefs          nan                       # Average number of references to valid blocks. ((Count/Count))
system.cpu.itb_walker_cache.tags.warmupTick            0                       # The tick when the warmup percentage was hit. (Tick)
system.cpu.itb_walker_cache.tags.tagAccesses            0                       # Number of tag accesses (Count)
system.cpu.itb_walker_cache.tags.dataAccesses            0                       # Number of data accesses (Count)
system.cpu.itb_walker_cache.tags.power_state.pwrStateResidencyTicks::UNDEFINED   1681434000                       # Cumulative time (in ticks) in various power states (Tick)
system.cpu.mmu.dtb.readHits                         0                       # read hits (Count)
system.cpu.mmu.dtb.readMisses                       0                       # read misses (Count)
system.cpu.mmu.dtb.readAccesses                     0                       # read accesses (Count)
system.cpu.mmu.dtb.writeHits                        0                       # write hits (Count)
system.cpu.mmu.dtb.writeMisses                      0                       # write misses (Count)
system.cpu.mmu.dtb.writeAccesses                    0                       # write accesses (Count)
system.cpu.mmu.dtb.hits                             0                       # Total TLB (read and write) hits (Count)
system.cpu.mmu.dtb.misses                           0                       # Total TLB (read and write) misses (Count)
system.cpu.mmu.dtb.accesses                         0                       # Total TLB (read and write) accesses (Count)
system.cpu.mmu.dtb.walker.power_state.pwrStateResidencyTicks::UNDEFINED   1681434000                       # Cumulative time (in ticks) in various power states (Tick)
system.cpu.mmu.itb.readHits                         0                       # read hits (Count)
system.cpu.mmu.itb.readMisses                       0                       # read misses (Count)
system.cpu.mmu.itb.readAccesses                     0                       # read accesses (Count)
system.cpu.mmu.itb.writeHits                        0                       # write hits (Count)
system.cpu.mmu.itb.writeMisses                      0                       # write misses (Count)
system.cpu.mmu.itb.writeAccesses                    0                       # write accesses (Count)
system.cpu.mmu.itb.hits                             0                       # Total TLB (read and write) hits (Count)
system.cpu.mmu.itb.misses                           0                       # Total TLB (read and write) misses (Count)
system.cpu.mmu.itb.accesses                         0                       # Total TLB (read and write) accesses (Count)
system.cpu.mmu.itb.walker.power_state.pwrStateResidencyTicks::UNDEFINED   1681434000                       # Cumulative time (in ticks) in various power states (Tick)
system.cpu.power_state.pwrStateResidencyTicks::ON   1681434000                       # Cumulative time (in ticks) in various power states (Tick)
system.cpu.thread_0.numInsts                        0                       # Number of Instructions committed (Count)
system.cpu.thread_0.numOps                          0                       # Number of Ops committed (Count)
system.cpu.thread_0.numMemRefs                      0                       # Number of Memory References (Count)
system.cpu.workload.numSyscalls                    14                       # Number of system calls (Count)
system.cpu_clk_domain.clock                       500                       # Clock period in ticks (Tick)
system.cpu_voltage_domain.voltage                   1                       # Voltage in Volts (Volt)
system.mem_ctrls.avgPriority_writebacks::samples       164.00                       # Average QoS priority value for accepted requests (Count)
system.mem_ctrls.avgPriority_cpu.inst::samples       377.00                       # Average QoS priority value for accepted requests (Count)
system.mem_ctrls.avgPriority_cpu.data::samples      1036.00                       # Average QoS priority value for accepted requests (Count)
system.mem_ctrls.priorityMinLatency      0.000000018750                       # per QoS priority minimum request to response latency (Second)
system.mem_ctrls.priorityMaxLatency      0.002911718750                       # per QoS priority maximum request to response latency (Second)
system.mem_ctrls.numReadWriteTurnArounds            8                       # Number of turnarounds from READ to WRITE (Count)
system.mem_ctrls.numWriteReadTurnArounds            8                       # Number of turnarounds from WRITE to READ (Count)
system.mem_ctrls.numStayReadState                3416                       # Number of times bus staying in READ state (Count)
system.mem_ctrls.numStayWriteState                128                       # Number of times bus staying in WRITE state (Count)
system.mem_ctrls.readReqs                        1427                       # Number of read requests accepted (Count)
system.mem_ctrls.writeReqs                        164                       # Number of write requests accepted (Count)
system.mem_ctrls.readBursts                      1427                       # Number of controller read bursts, including those serviced by the write queue (Count)
system.mem_ctrls.writeBursts                      164                       # Number of controller write bursts, including those merged in the write queue (Count)
system.mem_ctrls.servicedByWrQ                     14                       # Number of controller read bursts serviced by the write queue (Count)
system.mem_ctrls.mergedWrBursts                     0                       # Number of controller write bursts merged with an existing one (Count)
system.mem_ctrls.neitherReadNorWriteReqs            0                       # Number of requests that are neither read nor write (Count)
system.mem_ctrls.avgRdQLen                       1.00                       # Average read queue length when enqueuing ((Count/Tick))
system.mem_ctrls.avgWrQLen                      23.19                       # Average write queue length when enqueuing ((Count/Tick))
system.mem_ctrls.numRdRetry                         0                       # Number of times read queue was full causing retry (Count)
system.mem_ctrls.numWrRetry                         0                       # Number of times write queue was full causing retry (Count)
system.mem_ctrls.readPktSize::0                     0                       # Read request sizes (log2) (Count)
system.mem_ctrls.readPktSize::1                     0                       # Read request sizes (log2) (Count)
system.mem_ctrls.readPktSize::2                     0                       # Read request sizes (log2) (Count)
system.mem_ctrls.readPktSize::3                     0                       # Read request sizes (log2) (Count)
system.mem_ctrls.readPktSize::4                     0                       # Read request sizes (log2) (Count)
system.mem_ctrls.readPktSize::5                     0                       # Read request sizes (log2) (Count)
system.mem_ctrls.readPktSize::6                  1427                       # Read request sizes (log2) (Count)
system.mem_ctrls.writePktSize::0                    0                       # Write request sizes (log2) (Count)
system.mem_ctrls.writePktSize::1                    0                       # Write request sizes (log2) (Count)
system.mem_ctrls.writePktSize::2                    0                       # Write request sizes (log2) (Count)
system.mem_ctrls.writePktSize::3                    0                       # Write request sizes (log2) (Count)
system.mem_ctrls.writePktSize::4                    0                       # Write request sizes (log2) (Count)
system.mem_ctrls.writePktSize::5                    0                       # Write request sizes (log2) (Count)
system.mem_ctrls.writePktSize::6                  164                       # Write request sizes (log2) (Count)
system.mem_ctrls.rdQLenPdf::0                    1413                       # What read queue length does an incoming req see (Count)
system.mem_ctrls.rdQLenPdf::1                       0                       # What read queue length does an incoming req see (Count)
system.mem_ctrls.rdQLenPdf::2                       0                       # What read queue length does an incoming req see (Count)
system.mem_ctrls.rdQLenPdf::3                       0                       # What read queue length does an incoming req see (Count)
system.mem_ctrls.rdQLenPdf::4                       0                       # What read queue length does an incoming req see (Count)
system.mem_ctrls.rdQLenPdf::5                       0                       # What read queue length does an incoming req see (Count)
system.mem_ctrls.rdQLenPdf::6                       0                       # What read queue length does an incoming req see (Count)
system.mem_ctrls.rdQLenPdf::7                       0                       # What read queue length does an incoming req see (Count)
system.mem_ctrls.rdQLenPdf::8                       0                       # What read queue length does an incoming req see (Count)
system.mem_ctrls.rdQLenPdf::9                       0                       # What read queue length does an incoming req see (Count)
system.mem_ctrls.rdQLenPdf::10                      0                       # What read queue length does an incoming req see (Count)
system.mem_ctrls.rdQLenPdf::11                      0                       # What read queue length does an incoming req see (Count)
system.mem_ctrls.rdQLenPdf::12                      0                       # What read queue length does an incoming req see (Count)
system.mem_ctrls.rdQLenPdf::13                      0                       # What read queue length does an incoming req see (Count)
system.mem_ctrls.rdQLenPdf::14                      0                       # What read queue length does an incoming req see (Count)
system.mem_ctrls.rdQLenPdf::15                      0                       # What read queue length does an incoming req see (Count)
system.mem_ctrls.rdQLenPdf::16                      0                       # What read queue length does an incoming req see (Count)
system.mem_ctrls.rdQLenPdf::17                      0                       # What read queue length does an incoming req see (Count)
system.mem_ctrls.rdQLenPdf::18                      0                       # What read queue length does an incoming req see (Count)
system.mem_ctrls.rdQLenPdf::19                      0                       # What read queue length does an incoming req see (Count)
system.mem_ctrls.rdQLenPdf::20                      0                       # What read queue length does an incoming req see (Count)
system.mem_ctrls.rdQLenPdf::21                      0                       # What read queue length does an incoming req see (Count)
system.mem_ctrls.rdQLenPdf::22                      0                       # What read queue length does an incoming req see (Count)
system.mem_ctrls.rdQLenPdf::23                      0                       # What read queue length does an incoming req see (Count)
system.mem_ctrls.rdQLenPdf::24                      0                       # What read queue length does an incoming req see (Count)
system.mem_ctrls.rdQLenPdf::25                      0                       # What read queue length does an incoming req see (Count)
system.mem_ctrls.rdQLenPdf::26                      0                       # What read queue length does an incoming req see (Count)
system.mem_ctrls.rdQLenPdf::27                      0                       # What read queue length does an incoming req see (Count)
system.mem_ctrls.rdQLenPdf::28                      0                       # What read queue length does an incoming req see (Count)
system.mem_ctrls.rdQLenPdf::29                      0                       # What read queue length does an incoming req see (Count)
system.mem_ctrls.rdQLenPdf::30                      0                       # What read queue length does an incoming req see (Count)
system.mem_ctrls.rdQLenPdf::31                      0                       # What read queue length does an incoming req see (Count)
system.mem_ctrls.wrQLenPdf::0                       1                       # What write queue length does an incoming req see (Count)
system.mem_ctrls.wrQLenPdf::1                       1                       # What write queue length does an incoming req see (Count)
system.mem_ctrls.wrQLenPdf::2                       1                       # What write queue length does an incoming req see (Count)
system.mem_ctrls.wrQLenPdf::3                       1                       # What write queue length does an incoming req see (Count)
system.mem_ctrls.wrQLenPdf::4                       1                       # What write queue length does an incoming req see (Count)
system.mem_ctrls.wrQLenPdf::5                       1                       # What write queue length does an incoming req see (Count)
system.mem_ctrls.wrQLenPdf::6                       1                       # What write queue length does an incoming req see (Count)
system.mem_ctrls.wrQLenPdf::7                       1                       # What write queue length does an incoming req see (Count)
system.mem_ctrls.wrQLenPdf::8                       1                       # What write queue length does an incoming req see (Count)
system.mem_ctrls.wrQLenPdf::9                       1                       # What write queue length does an incoming req see (Count)
system.mem_ctrls.wrQLenPdf::10                      1                       # What write queue length does an incoming req see (Count)
system.mem_ctrls.wrQLenPdf::11                      1                       # What write queue length does an incoming req see (Count)
system.mem_ctrls.wrQLenPdf::12                      1                       # What write queue length does an incoming req see (Count)
system.mem_ctrls.wrQLenPdf::13                      1                       # What write queue length does an incoming req see (Count)
system.mem_ctrls.wrQLenPdf::14                      1                       # What write queue length does an incoming req see (Count)
system.mem_ctrls.wrQLenPdf::15                      5                       # What write queue length does an incoming req see (Count)
system.mem_ctrls.wrQLenPdf::16                      5                       # What write queue length does an incoming req see (Count)
system.mem_ctrls.wrQLenPdf::17                      9                       # What write queue length does an incoming req see (Count)
system.mem_ctrls.wrQLenPdf::18                      9                       # What write queue length does an incoming req see (Count)
system.mem_ctrls.wrQLenPdf::19                      9                       # What write queue length does an incoming req see (Count)
system.mem_ctrls.wrQLenPdf::20                      9                       # What write queue length does an incoming req see (Count)
system.mem_ctrls.wrQLenPdf::21                      9                       # What write queue length does an incoming req see (Count)
system.mem_ctrls.wrQLenPdf::22                      9                       # What write queue length does an incoming req see (Count)
system.mem_ctrls.wrQLenPdf::23                      9                       # What write queue length does an incoming req see (Count)
system.mem_ctrls.wrQLenPdf::24                      9                       # What write queue length does an incoming req see (Count)
system.mem_ctrls.wrQLenPdf::25                      9                       # What write queue length does an incoming req see (Count)
system.mem_ctrls.wrQLenPdf::26                      9                       # What write queue length does an incoming req see (Count)
system.mem_ctrls.wrQLenPdf::27                      9                       # What write queue length does an incoming req see (Count)
system.mem_ctrls.wrQLenPdf::28                      8                       # What write queue length does an incoming req see (Count)
system.mem_ctrls.wrQLenPdf::29                      8                       # What write queue length does an incoming req see (Count)
system.mem_ctrls.wrQLenPdf::30                      8                       # What write queue length does an incoming req see (Count)
system.mem_ctrls.wrQLenPdf::31                      8                       # What write queue length does an incoming req see (Count)
system.mem_ctrls.wrQLenPdf::32                      8                       # What write queue length does an incoming req see (Count)
system.mem_ctrls.wrQLenPdf::33                      0                       # What write queue length does an incoming req see (Count)
system.mem_ctrls.wrQLenPdf::34                      0                       # What write queue length does an incoming req see (Count)
system.mem_ctrls.wrQLenPdf::35                      0                       # What write queue length does an incoming req see (Count)
system.mem_ctrls.wrQLenPdf::36                      0                       # What write queue length does an incoming req see (Count)
system.mem_ctrls.wrQLenPdf::37                      0                       # What write queue length does an incoming req see (Count)
system.mem_ctrls.wrQLenPdf::38                      0                       # What write queue length does an incoming req see (Count)
system.mem_ctrls.wrQLenPdf::39                      0                       # What write queue length does an incoming req see (Count)
system.mem_ctrls.wrQLenPdf::40                      0                       # What write queue length does an incoming req see (Count)
system.mem_ctrls.wrQLenPdf::41                      0                       # What write queue length does an incoming req see (Count)
system.mem_ctrls.wrQLenPdf::42                      0                       # What write queue length does an incoming req see (Count)
system.mem_ctrls.wrQLenPdf::43                      0                       # What write queue length does an incoming req see (Count)
system.mem_ctrls.wrQLenPdf::44                      0                       # What write queue length does an incoming req see (Count)
system.mem_ctrls.wrQLenPdf::45                      0                       # What write queue length does an incoming req see (Count)
system.mem_ctrls.wrQLenPdf::46                      0                       # What write queue length does an incoming req see (Count)
system.mem_ctrls.wrQLenPdf::47                      0                       # What write queue length does an incoming req see (Count)
system.mem_ctrls.wrQLenPdf::48                      0                       # What write queue length does an incoming req see (Count)
system.mem_ctrls.wrQLenPdf::49                      0                       # What write queue length does an incoming req see (Count)
system.mem_ctrls.wrQLenPdf::50                      0                       # What write queue length does an incoming req see (Count)
system.mem_ctrls.wrQLenPdf::51                      0                       # What write queue length does an incoming req see (Count)
system.mem_ctrls.wrQLenPdf::52                      0                       # What write queue length does an incoming req see (Count)
system.mem_ctrls.wrQLenPdf::53                      0                       # What write queue length does an incoming req see (Count)
system.mem_ctrls.wrQLenPdf::54                      0                       # What write queue length does an incoming req see (Count)
system.mem_ctrls.wrQLenPdf::55                      0                       # What write queue length does an incoming req see (Count)
system.mem_ctrls.wrQLenPdf::56                      0                       # What write queue length does an incoming req see (Count)
system.mem_ctrls.wrQLenPdf::57                      0                       # What write queue length does an incoming req see (Count)
system.mem_ctrls.wrQLenPdf::58                      0                       # What write queue length does an incoming req see (Count)
system.mem_ctrls.wrQLenPdf::59                      0                       # What write queue length does an incoming req see (Count)
system.mem_ctrls.wrQLenPdf::60                      0                       # What write queue length does an incoming req see (Count)
system.mem_ctrls.wrQLenPdf::61                      0                       # What write queue length does an incoming req see (Count)
system.mem_ctrls.wrQLenPdf::62                      0                       # What write queue length does an incoming req see (Count)
system.mem_ctrls.wrQLenPdf::63                      0                       # What write queue length does an incoming req see (Count)
system.mem_ctrls.rdPerTurnAround::samples            8                       # Reads before turning the bus around for writes (Count)
system.mem_ctrls.rdPerTurnAround::mean     170.250000                       # Reads before turning the bus around for writes (Count)
system.mem_ctrls.rdPerTurnAround::gmean     84.301561                       # Reads before turning the bus around for writes (Count)
system.mem_ctrls.rdPerTurnAround::stdev    299.148673                       # Reads before turning the bus around for writes (Count)
system.mem_ctrls.rdPerTurnAround::0-31              1     12.50%     12.50% # Reads before turning the bus around for writes (Count)
system.mem_ctrls.rdPerTurnAround::32-63             3     37.50%     50.00% # Reads before turning the bus around for writes (Count)
system.mem_ctrls.rdPerTurnAround::64-95             2     25.00%     75.00% # Reads before turning the bus around for writes (Count)
system.mem_ctrls.rdPerTurnAround::96-127            1     12.50%     87.50% # Reads before turning the bus around for writes (Count)
system.mem_ctrls.rdPerTurnAround::896-927            1     12.50%    100.00% # Reads before turning the bus around for writes (Count)
system.mem_ctrls.rdPerTurnAround::total             8                       # Reads before turning the bus around for writes (Count)
system.mem_ctrls.wrPerTurnAround::samples            8                       # Writes before turning the bus around for reads (Count)
system.mem_ctrls.wrPerTurnAround::mean             17                       # Writes before turning the bus around for reads (Count)
system.mem_ctrls.wrPerTurnAround::gmean     16.970563                       # Writes before turning the bus around for reads (Count)
system.mem_ctrls.wrPerTurnAround::stdev      1.069045                       # Writes before turning the bus around for reads (Count)
system.mem_ctrls.wrPerTurnAround::16                4     50.00%     50.00% # Writes before turning the bus around for reads (Count)
system.mem_ctrls.wrPerTurnAround::18                4     50.00%    100.00% # Writes before turning the bus around for reads (Count)
system.mem_ctrls.wrPerTurnAround::total             8                       # Writes before turning the bus around for reads (Count)
system.mem_ctrls.bytesReadWrQ                     896                       # Total number of bytes read from write queue (Byte)
system.mem_ctrls.bytesReadSys                   91328                       # Total read bytes from the system interface side (Byte)
system.mem_ctrls.bytesWrittenSys                10496                       # Total written bytes from the system interface side (Byte)
system.mem_ctrls.avgRdBWSys              54315542.56664252                       # Average system read bandwidth in Byte/s ((Byte/Second))
system.mem_ctrls.avgWrBWSys              6242290.80653775                       # Average system write bandwidth in Byte/s ((Byte/Second))
system.mem_ctrls.totGap                    1681372000                       # Total gap between requests (Tick)
system.mem_ctrls.avgGap                    1056802.01                       # Average gap between requests ((Tick/Count))
system.mem_ctrls.requestorReadBytes::cpu.inst        24128                       # Per-requestor bytes read from memory (Byte)
system.mem_ctrls.requestorReadBytes::cpu.data        66304                       # Per-requestor bytes read from memory (Byte)
system.mem_ctrls.requestorWriteBytes::writebacks         8704                       # Per-requestor bytes write to memory (Byte)
system.mem_ctrls.requestorReadRate::cpu.inst 14349656.305272759870                       # Per-requestor bytes read from memory rate ((Byte/Second))
system.mem_ctrls.requestorReadRate::cpu.data 39433007.777884826064                       # Per-requestor bytes read from memory rate ((Byte/Second))
system.mem_ctrls.requestorWriteRate::writebacks 5176533.839567892253                       # Per-requestor bytes write to memory rate ((Byte/Second))
system.mem_ctrls.requestorReadAccesses::cpu.inst          387                       # Per-requestor read serviced memory accesses (Count)
system.mem_ctrls.requestorReadAccesses::cpu.data         1040                       # Per-requestor read serviced memory accesses (Count)
system.mem_ctrls.requestorWriteAccesses::writebacks          164                       # Per-requestor write serviced memory accesses (Count)
system.mem_ctrls.requestorReadTotalLat::cpu.inst      9144000                       # Per-requestor read total memory access latency (Tick)
system.mem_ctrls.requestorReadTotalLat::cpu.data     25303250                       # Per-requestor read total memory access latency (Tick)
system.mem_ctrls.requestorWriteTotalLat::writebacks  38744196000                       # Per-requestor write total memory access latency (Tick)
system.mem_ctrls.requestorReadAvgLat::cpu.inst     23627.91                       # Per-requestor read average memory access latency ((Tick/Count))
system.mem_ctrls.requestorReadAvgLat::cpu.data     24330.05                       # Per-requestor read average memory access latency ((Tick/Count))
system.mem_ctrls.requestorWriteAvgLat::writebacks 236245097.56                       # Per-requestor write average memory access latency ((Tick/Count))
system.mem_ctrls.dram.bytesRead::cpu.inst        24768                       # Number of bytes read from this memory (Byte)
system.mem_ctrls.dram.bytesRead::cpu.data        66560                       # Number of bytes read from this memory (Byte)
system.mem_ctrls.dram.bytesRead::total          91328                       # Number of bytes read from this memory (Byte)
system.mem_ctrls.dram.bytesInstRead::cpu.inst        24768                       # Number of instructions bytes read from this memory (Byte)
system.mem_ctrls.dram.bytesInstRead::total        24768                       # Number of instructions bytes read from this memory (Byte)
system.mem_ctrls.dram.bytesWritten::writebacks         5376                       # Number of bytes written to this memory (Byte)
system.mem_ctrls.dram.bytesWritten::total         5376                       # Number of bytes written to this memory (Byte)
system.mem_ctrls.dram.numReads::cpu.inst          387                       # Number of read requests responded to by this memory (Count)
system.mem_ctrls.dram.numReads::cpu.data         1040                       # Number of read requests responded to by this memory (Count)
system.mem_ctrls.dram.numReads::total            1427                       # Number of read requests responded to by this memory (Count)
system.mem_ctrls.dram.numWrites::writebacks           84                       # Number of write requests responded to by this memory (Count)
system.mem_ctrls.dram.numWrites::total             84                       # Number of write requests responded to by this memory (Count)
system.mem_ctrls.dram.bwRead::cpu.inst       14730284                       # Total read bandwidth from this memory ((Byte/Second))
system.mem_ctrls.dram.bwRead::cpu.data       39585259                       # Total read bandwidth from this memory ((Byte/Second))
system.mem_ctrls.dram.bwRead::total          54315543                       # Total read bandwidth from this memory ((Byte/Second))
system.mem_ctrls.dram.bwInstRead::cpu.inst     14730284                       # Instruction read bandwidth from this memory ((Byte/Second))
system.mem_ctrls.dram.bwInstRead::total      14730284                       # Instruction read bandwidth from this memory ((Byte/Second))
system.mem_ctrls.dram.bwWrite::writebacks      3197271                       # Write bandwidth from this memory ((Byte/Second))
system.mem_ctrls.dram.bwWrite::total          3197271                       # Write bandwidth from this memory ((Byte/Second))
system.mem_ctrls.dram.bwTotal::writebacks      3197271                       # Total bandwidth to/from this memory ((Byte/Second))
system.mem_ctrls.dram.bwTotal::cpu.inst      14730284                       # Total bandwidth to/from this memory ((Byte/Second))
system.mem_ctrls.dram.bwTotal::cpu.data      39585259                       # Total bandwidth to/from this memory ((Byte/Second))
system.mem_ctrls.dram.bwTotal::total         57512813                       # Total bandwidth to/from this memory ((Byte/Second))
system.mem_ctrls.dram.readBursts                 1413                       # Number of DRAM read bursts (Count)
system.mem_ctrls.dram.writeBursts                 136                       # Number of DRAM write bursts (Count)
system.mem_ctrls.dram.perBankRdBursts::0          201                       # Per bank write bursts (Count)
system.mem_ctrls.dram.perBankRdBursts::1          149                       # Per bank write bursts (Count)
system.mem_ctrls.dram.perBankRdBursts::2           99                       # Per bank write bursts (Count)
system.mem_ctrls.dram.perBankRdBursts::3          127                       # Per bank write bursts (Count)
system.mem_ctrls.dram.perBankRdBursts::4          149                       # Per bank write bursts (Count)
system.mem_ctrls.dram.perBankRdBursts::5          105                       # Per bank write bursts (Count)
system.mem_ctrls.dram.perBankRdBursts::6          113                       # Per bank write bursts (Count)
system.mem_ctrls.dram.perBankRdBursts::7           36                       # Per bank write bursts (Count)
system.mem_ctrls.dram.perBankRdBursts::8           80                       # Per bank write bursts (Count)
system.mem_ctrls.dram.perBankRdBursts::9          110                       # Per bank write bursts (Count)
system.mem_ctrls.dram.perBankRdBursts::10           18                       # Per bank write bursts (Count)
system.mem_ctrls.dram.perBankRdBursts::11           20                       # Per bank write bursts (Count)
system.mem_ctrls.dram.perBankRdBursts::12           17                       # Per bank write bursts (Count)
system.mem_ctrls.dram.perBankRdBursts::13           77                       # Per bank write bursts (Count)
system.mem_ctrls.dram.perBankRdBursts::14           12                       # Per bank write bursts (Count)
system.mem_ctrls.dram.perBankRdBursts::15          100                       # Per bank write bursts (Count)
system.mem_ctrls.dram.perBankWrBursts::0           10                       # Per bank write bursts (Count)
system.mem_ctrls.dram.perBankWrBursts::1            4                       # Per bank write bursts (Count)
system.mem_ctrls.dram.perBankWrBursts::2            5                       # Per bank write bursts (Count)
system.mem_ctrls.dram.perBankWrBursts::3            2                       # Per bank write bursts (Count)
system.mem_ctrls.dram.perBankWrBursts::4           17                       # Per bank write bursts (Count)
system.mem_ctrls.dram.perBankWrBursts::5            0                       # Per bank write bursts (Count)
system.mem_ctrls.dram.perBankWrBursts::6            2                       # Per bank write bursts (Count)
system.mem_ctrls.dram.perBankWrBursts::7            0                       # Per bank write bursts (Count)
system.mem_ctrls.dram.perBankWrBursts::8            9                       # Per bank write bursts (Count)
system.mem_ctrls.dram.perBankWrBursts::9           38                       # Per bank write bursts (Count)
system.mem_ctrls.dram.perBankWrBursts::10            5                       # Per bank write bursts (Count)
system.mem_ctrls.dram.perBankWrBursts::11            6                       # Per bank write bursts (Count)
system.mem_ctrls.dram.perBankWrBursts::12            8                       # Per bank write bursts (Count)
system.mem_ctrls.dram.perBankWrBursts::13           29                       # Per bank write bursts (Count)
system.mem_ctrls.dram.perBankWrBursts::14            1                       # Per bank write bursts (Count)
system.mem_ctrls.dram.perBankWrBursts::15            0                       # Per bank write bursts (Count)
system.mem_ctrls.dram.totQLat                 7953500                       # Total ticks spent queuing (Tick)
system.mem_ctrls.dram.totBusLat               7065000                       # Total ticks spent in databus transfers (Tick)
system.mem_ctrls.dram.totMemAccLat           34447250                       # Total ticks spent from burst creation until serviced by the DRAM (Tick)
system.mem_ctrls.dram.avgQLat                 5628.80                       # Average queueing delay per DRAM burst ((Tick/Count))
system.mem_ctrls.dram.avgBusLat               5000.00                       # Average bus latency per DRAM burst ((Tick/Count))
system.mem_ctrls.dram.avgMemAccLat           24378.80                       # Average memory access latency per DRAM burst ((Tick/Count))
system.mem_ctrls.dram.readRowHits                1221                       # Number of row buffer hits during reads (Count)
system.mem_ctrls.dram.writeRowHits                114                       # Number of row buffer hits during writes (Count)
system.mem_ctrls.dram.readRowHitRate            86.41                       # Row buffer hit rate for reads (Ratio)
system.mem_ctrls.dram.writeRowHitRate           83.82                       # Row buffer hit rate for writes (Ratio)
system.mem_ctrls.dram.bytesPerActivate::samples          201                       # Bytes accessed per row activation (Byte)
system.mem_ctrls.dram.bytesPerActivate::mean   478.567164                       # Bytes accessed per row activation (Byte)
system.mem_ctrls.dram.bytesPerActivate::gmean   310.132423                       # Bytes accessed per row activation (Byte)
system.mem_ctrls.dram.bytesPerActivate::stdev   378.308468                       # Bytes accessed per row activation (Byte)
system.mem_ctrls.dram.bytesPerActivate::0-127           33     16.42%     16.42% # Bytes accessed per row activation (Byte)
system.mem_ctrls.dram.bytesPerActivate::128-255           49     24.38%     40.80% # Bytes accessed per row activation (Byte)
system.mem_ctrls.dram.bytesPerActivate::256-383           19      9.45%     50.25% # Bytes accessed per row activation (Byte)
system.mem_ctrls.dram.bytesPerActivate::384-511           14      6.97%     57.21% # Bytes accessed per row activation (Byte)
system.mem_ctrls.dram.bytesPerActivate::512-639           13      6.47%     63.68% # Bytes accessed per row activation (Byte)
system.mem_ctrls.dram.bytesPerActivate::640-767            8      3.98%     67.66% # Bytes accessed per row activation (Byte)
system.mem_ctrls.dram.bytesPerActivate::768-895            9      4.48%     72.14% # Bytes accessed per row activation (Byte)
system.mem_ctrls.dram.bytesPerActivate::896-1023           13      6.47%     78.61% # Bytes accessed per row activation (Byte)
system.mem_ctrls.dram.bytesPerActivate::1024-1151           43     21.39%    100.00% # Bytes accessed per row activation (Byte)
system.mem_ctrls.dram.bytesPerActivate::total          201                       # Bytes accessed per row activation (Byte)
system.mem_ctrls.dram.bytesRead                 90432                       # Total bytes read (Byte)
system.mem_ctrls.dram.bytesWritten               8704                       # Total bytes written (Byte)
system.mem_ctrls.dram.avgRdBW               53.782664                       # Average DRAM read bandwidth in MiBytes/s ((Byte/Second))
system.mem_ctrls.dram.avgWrBW                5.176534                       # Average DRAM write bandwidth in MiBytes/s ((Byte/Second))
system.mem_ctrls.dram.peakBW                 12800.00                       # Theoretical peak bandwidth in MiByte/s ((Byte/Second))
system.mem_ctrls.dram.busUtil                    0.46                       # Data bus utilization in percentage (Ratio)
system.mem_ctrls.dram.busUtilRead                0.42                       # Data bus utilization in percentage for reads (Ratio)
system.mem_ctrls.dram.busUtilWrite               0.04                       # Data bus utilization in percentage for writes (Ratio)
system.mem_ctrls.dram.pageHitRate               86.18                       # Row buffer hit rate, read and write combined (Ratio)
system.mem_ctrls.dram.power_state.pwrStateResidencyTicks::UNDEFINED   1681434000                       # Cumulative time (in ticks) in various power states (Tick)
system.mem_ctrls.dram.rank0.actEnergy          856800                       # Energy for activate commands per rank (pJ) (Joule)
system.mem_ctrls.dram.rank0.preEnergy          425040                       # Energy for precharge commands per rank (pJ) (Joule)
system.mem_ctrls.dram.rank0.readEnergy        6990060                       # Energy for read commands per rank (pJ) (Joule)
system.mem_ctrls.dram.rank0.writeEnergy        208800                       # Energy for write commands per rank (pJ) (Joule)
system.mem_ctrls.dram.rank0.refreshEnergy 132147600.000000                       # Energy for refresh commands per rank (pJ) (Joule)
system.mem_ctrls.dram.rank0.actBackEnergy    123367950                       # Energy for active background per rank (pJ) (Joule)
system.mem_ctrls.dram.rank0.preBackEnergy    541782240                       # Energy for precharge background per rank (pJ) (Joule)
system.mem_ctrls.dram.rank0.actPowerDownEnergy            0                       # Energy for active power-down per rank (pJ) (Joule)
system.mem_ctrls.dram.rank0.prePowerDownEnergy            0                       # Energy for precharge power-down per rank (pJ) (Joule)
system.mem_ctrls.dram.rank0.selfRefreshEnergy            0                       # Energy for self refresh per rank (pJ) (Joule)
system.mem_ctrls.dram.rank0.totalEnergy     805778490                       # Total energy per rank (pJ) (Joule)
system.mem_ctrls.dram.rank0.averagePower   479.221004                       # Core power per rank (mW) (Watt)
system.mem_ctrls.dram.rank0.totalIdleTime            0                       # Total Idle time Per DRAM Rank (Tick)
system.mem_ctrls.dram.rank0.pwrStateTime::IDLE   1407228750                       # Time in different power states (Tick)
system.mem_ctrls.dram.rank0.pwrStateTime::REF     55900000                       # Time in different power states (Tick)
system.mem_ctrls.dram.rank0.pwrStateTime::SREF            0                       # Time in different power states (Tick)
system.mem_ctrls.dram.rank0.pwrStateTime::PRE_PDN            0                       # Time in different power states (Tick)
system.mem_ctrls.dram.rank0.pwrStateTime::ACT    218305250                       # Time in different power states (Tick)
system.mem_ctrls.dram.rank0.pwrStateTime::ACT_PDN            0                       # Time in different power states (Tick)
system.mem_ctrls.dram.rank1.actEnergy          671160                       # Energy for activate commands per rank (pJ) (Joule)
system.mem_ctrls.dram.rank1.preEnergy          337755                       # Energy for precharge commands per rank (pJ) (Joule)
system.mem_ctrls.dram.rank1.readEnergy        3098760                       # Energy for read commands per rank (pJ) (Joule)
system.mem_ctrls.dram.rank1.writeEnergy        501120                       # Energy for write commands per rank (pJ) (Joule)
system.mem_ctrls.dram.rank1.refreshEnergy 132147600.000000                       # Energy for refresh commands per rank (pJ) (Joule)
system.mem_ctrls.dram.rank1.actBackEnergy     69479010                       # Energy for active background per rank (pJ) (Joule)
system.mem_ctrls.dram.rank1.preBackEnergy    587162400                       # Energy for precharge background per rank (pJ) (Joule)
system.mem_ctrls.dram.rank1.actPowerDownEnergy            0                       # Energy for active power-down per rank (pJ) (Joule)
system.mem_ctrls.dram.rank1.prePowerDownEnergy            0                       # Energy for precharge power-down per rank (pJ) (Joule)
system.mem_ctrls.dram.rank1.selfRefreshEnergy            0                       # Energy for self refresh per rank (pJ) (Joule)
system.mem_ctrls.dram.rank1.totalEnergy     793397805                       # Total energy per rank (pJ) (Joule)
system.mem_ctrls.dram.rank1.averagePower   471.857834                       # Core power per rank (mW) (Watt)
system.mem_ctrls.dram.rank1.totalIdleTime            0                       # Total Idle time Per DRAM Rank (Tick)
system.mem_ctrls.dram.rank1.pwrStateTime::IDLE   1525850500                       # Time in different power states (Tick)
system.mem_ctrls.dram.rank1.pwrStateTime::REF     55900000                       # Time in different power states (Tick)
system.mem_ctrls.dram.rank1.pwrStateTime::SREF            0                       # Time in different power states (Tick)
system.mem_ctrls.dram.rank1.pwrStateTime::PRE_PDN            0                       # Time in different power states (Tick)
system.mem_ctrls.dram.rank1.pwrStateTime::ACT     99683500                       # Time in different power states (Tick)
system.mem_ctrls.dram.rank1.pwrStateTime::ACT_PDN            0                       # Time in different power states (Tick)
system.mem_ctrls.power_state.pwrStateResidencyTicks::UNDEFINED   1681434000                       # Cumulative time (in ticks) in various power states (Tick)
system.membus.transDist::ReadResp                1268                       # Transaction distribution (Count)
system.membus.transDist::WritebackDirty            84                       # Transaction distribution (Count)
system.membus.transDist::WritebackClean            80                       # Transaction distribution (Count)
system.membus.transDist::CleanEvict               125                       # Transaction distribution (Count)
system.membus.transDist::ReadExReq                159                       # Transaction distribution (Count)
system.membus.transDist::ReadExResp               159                       # Transaction distribution (Count)
system.membus.transDist::ReadCleanReq             387                       # Transaction distribution (Count)
system.membus.transDist::ReadSharedReq            881                       # Transaction distribution (Count)
system.membus.pktCount_system.cpu.icache.mem_side_port::system.mem_ctrls.port          854                       # Packet count per connected requestor and responder (Count)
system.membus.pktCount_system.cpu.dcache.mem_side_port::system.mem_ctrls.port         2289                       # Packet count per connected requestor and responder (Count)
system.membus.pktCount::total                    3143                       # Packet count per connected requestor and responder (Count)
system.membus.pktSize_system.cpu.icache.mem_side_port::system.mem_ctrls.port        29888                       # Cumulative packet size per connected requestor and responder (Byte)
system.membus.pktSize_system.cpu.dcache.mem_side_port::system.mem_ctrls.port        71936                       # Cumulative packet size per connected requestor and responder (Byte)
system.membus.pktSize::total                   101824                       # Cumulative packet size per connected requestor and responder (Byte)
system.membus.snoops                                0                       # Total snoops (Count)
system.membus.snoopTraffic                          0                       # Total snoop traffic (Byte)
system.membus.snoopFanout::samples               1427                       # Request fanout histogram (Count)
system.membus.snoopFanout::mean                     0                       # Request fanout histogram (Count)
system.membus.snoopFanout::stdev                    0                       # Request fanout histogram (Count)
system.membus.snoopFanout::underflows               0      0.00%      0.00% # Request fanout histogram (Count)
system.membus.snoopFanout::0                     1427    100.00%    100.00% # Request fanout histogram (Count)
system.membus.snoopFanout::1                        0      0.00%    100.00% # Request fanout histogram (Count)
system.membus.snoopFanout::2                        0      0.00%    100.00% # Request fanout histogram (Count)
system.membus.snoopFanout::3                        0      0.00%    100.00% # Request fanout histogram (Count)
system.membus.snoopFanout::4                        0      0.00%    100.00% # Request fanout histogram (Count)
system.membus.snoopFanout::overflows                0      0.00%    100.00% # Request fanout histogram (Count)
system.membus.snoopFanout::min_value                0                       # Request fanout histogram (Count)
system.membus.snoopFanout::max_value                0                       # Request fanout histogram (Count)
system.membus.snoopFanout::total                 1427                       # Request fanout histogram (Count)
system.membus.power_state.pwrStateResidencyTicks::UNDEFINED   1681434000                       # Cumulative time (in ticks) in various power states (Tick)
system.membus.reqLayer0.occupancy             2372000                       # Layer occupancy (ticks) (Tick)
system.membus.reqLayer0.utilization               0.0                       # Layer utilization (Ratio)
system.membus.respLayer1.occupancy            2052000                       # Layer occupancy (ticks) (Tick)
system.membus.respLayer1.utilization              0.0                       # Layer utilization (Ratio)
system.membus.respLayer2.occupancy            5486750                       # Layer occupancy (ticks) (Tick)
system.membus.respLayer2.utilization              0.0                       # Layer utilization (Ratio)
system.membus.snoop_filter.totRequests           1716                       # Total number of requests made to the snoop filter. (Count)
system.membus.snoop_filter.hitSingleRequests          289                       # Number of requests hitting in the snoop filter with a single holder of the requested data. (Count)
system.membus.snoop_filter.hitMultiRequests            0                       # Number of requests hitting in the snoop filter with multiple (>1) holders of the requested data. (Count)
system.membus.snoop_filter.totSnoops                0                       # Total number of snoops made to the snoop filter. (Count)
system.membus.snoop_filter.hitSingleSnoops            0                       # Number of snoops hitting in the snoop filter with a single holder of the requested data. (Count)
system.membus.snoop_filter.hitMultiSnoops            0                       # Number of snoops hitting in the snoop filter with multiple (>1) holders of the requested data. (Count)
system.voltage_domain.voltage                       1                       # Voltage in Volts (Volt)
system.workload.inst.arm                            0                       # number of arm instructions executed (Count)
system.workload.inst.quiesce                        0                       # number of quiesce instructions executed (Count)

---------- End Simulation Statistics   ----------
