
---------- Begin Simulation Statistics ----------
simSeconds                                   0.004651                       # Number of seconds simulated (Second)
simTicks                                   4651366000                       # Number of ticks simulated (Tick)
finalTick                                  4651366000                       # Number of ticks from beginning of simulation (restored from checkpoints and never reset) (Tick)
simFreq                                  1000000000000                       # The number of ticks per simulated second ((Tick/Second))
hostSeconds                                      1.35                       # Real time elapsed on the host (Second)
hostTickRate                               3432989783                       # The number of ticks simulated per host second (ticks/s) ((Tick/Second))
hostMemory                                     644892                       # Number of bytes of host memory used (Byte)
simInsts                                      3140047                       # Number of instructions simulated (Count)
simOps                                        3140094                       # Number of ops (including micro ops) simulated (Count)
hostInstRate                                  2317375                       # Simulator instruction rate (inst/s) ((Count/Second))
hostOpRate                                    2317405                       # Simulator op (including micro ops) rate (op/s) ((Count/Second))
system.clk_domain.clock                          1000                       # Clock period in ticks (Tick)
system.cpu.numCycles                          9302732                       # Number of cpu cycles simulated (Cycle)
system.cpu.cpi                               2.962120                       # CPI: cycles per instruction (core level) ((Cycle/Count))
system.cpu.ipc                               0.337596                       # IPC: instructions per cycle (core level) ((Count/Cycle))
system.cpu.numWorkItemsStarted                      0                       # Number of work items this cpu started (Count)
system.cpu.numWorkItemsCompleted                    0                       # Number of work items this cpu completed (Count)
system.cpu.commitStats0.numInsts              3140566                       # Number of instructions committed (thread level) (Count)
system.cpu.commitStats0.numOps                3140613                       # Number of ops (including micro ops) committed (thread level) (Count)
system.cpu.commitStats0.numInstsNotNOP              0                       # Number of instructions committed excluding NOPs or prefetches (Count)
system.cpu.commitStats0.numOpsNotNOP                0                       # Number of Ops (including micro ops) Simulated (Count)
system.cpu.commitStats0.cpi                  2.962120                       # CPI: cycles per instruction (thread level) ((Cycle/Count))
system.cpu.commitStats0.ipc                  0.337596                       # IPC: instructions per cycle (thread level) ((Count/Cycle))
system.cpu.commitStats0.numMemRefs                  0                       # Number of memory references committed (Count)
system.cpu.commitStats0.numFpInsts               6012                       # Number of float instructions (Count)
system.cpu.commitStats0.numIntInsts           3135733                       # Number of integer instructions (Count)
system.cpu.commitStats0.numLoadInsts           362903                       # Number of load instructions (Count)
system.cpu.commitStats0.numStoreInsts           41646                       # Number of store instructions (Count)
system.cpu.commitStats0.numVecInsts                 0                       # Number of vector instructions (Count)
system.cpu.commitStats0.committedInstType::No_OpClass         2097      0.07%      0.07% # Class of committed instruction. (Count)
system.cpu.commitStats0.committedInstType::IntAlu      2733949     87.05%     87.12% # Class of committed instruction. (Count)
system.cpu.commitStats0.committedInstType::IntMult            6      0.00%     87.12% # Class of committed instruction. (Count)
system.cpu.commitStats0.committedInstType::IntDiv           12      0.00%     87.12% # Class of committed instruction. (Count)
system.cpu.commitStats0.committedInstType::FloatAdd            0      0.00%     87.12% # Class of committed instruction. (Count)
system.cpu.commitStats0.committedInstType::FloatCmp            0      0.00%     87.12% # Class of committed instruction. (Count)
system.cpu.commitStats0.committedInstType::FloatCvt            0      0.00%     87.12% # Class of committed instruction. (Count)
system.cpu.commitStats0.committedInstType::FloatMult            0      0.00%     87.12% # Class of committed instruction. (Count)
system.cpu.commitStats0.committedInstType::FloatMultAcc            0      0.00%     87.12% # Class of committed instruction. (Count)
system.cpu.commitStats0.committedInstType::FloatDiv            0      0.00%     87.12% # Class of committed instruction. (Count)
system.cpu.commitStats0.committedInstType::FloatMisc            0      0.00%     87.12% # Class of committed instruction. (Count)
system.cpu.commitStats0.committedInstType::FloatSqrt            0      0.00%     87.12% # Class of committed instruction. (Count)
system.cpu.commitStats0.committedInstType::SimdAdd            0      0.00%     87.12% # Class of committed instruction. (Count)
system.cpu.commitStats0.committedInstType::SimdAddAcc            0      0.00%     87.12% # Class of committed instruction. (Count)
system.cpu.commitStats0.committedInstType::SimdAlu            0      0.00%     87.12% # Class of committed instruction. (Count)
system.cpu.commitStats0.committedInstType::SimdCmp            0      0.00%     87.12% # Class of committed instruction. (Count)
system.cpu.commitStats0.committedInstType::SimdCvt            0      0.00%     87.12% # Class of committed instruction. (Count)
system.cpu.commitStats0.committedInstType::SimdMisc            0      0.00%     87.12% # Class of committed instruction. (Count)
system.cpu.commitStats0.committedInstType::SimdMult            0      0.00%     87.12% # Class of committed instruction. (Count)
system.cpu.commitStats0.committedInstType::SimdMultAcc            0      0.00%     87.12% # Class of committed instruction. (Count)
system.cpu.commitStats0.committedInstType::SimdMatMultAcc            0      0.00%     87.12% # Class of committed instruction. (Count)
system.cpu.commitStats0.committedInstType::SimdShift            0      0.00%     87.12% # Class of committed instruction. (Count)
system.cpu.commitStats0.committedInstType::SimdShiftAcc            0      0.00%     87.12% # Class of committed instruction. (Count)
system.cpu.commitStats0.committedInstType::SimdDiv            0      0.00%     87.12% # Class of committed instruction. (Count)
system.cpu.commitStats0.committedInstType::SimdSqrt            0      0.00%     87.12% # Class of committed instruction. (Count)
system.cpu.commitStats0.committedInstType::SimdFloatAdd            0      0.00%     87.12% # Class of committed instruction. (Count)
system.cpu.commitStats0.committedInstType::SimdFloatAlu            0      0.00%     87.12% # Class of committed instruction. (Count)
system.cpu.commitStats0.committedInstType::SimdFloatCmp            0      0.00%     87.12% # Class of committed instruction. (Count)
system.cpu.commitStats0.committedInstType::SimdFloatCvt            0      0.00%     87.12% # Class of committed instruction. (Count)
system.cpu.commitStats0.committedInstType::SimdFloatDiv            0      0.00%     87.12% # Class of committed instruction. (Count)
system.cpu.commitStats0.committedInstType::SimdFloatMisc            0      0.00%     87.12% # Class of committed instruction. (Count)
system.cpu.commitStats0.committedInstType::SimdFloatMult            0      0.00%     87.12% # Class of committed instruction. (Count)
system.cpu.commitStats0.committedInstType::SimdFloatMultAcc            0      0.00%     87.12% # Class of committed instruction. (Count)
system.cpu.commitStats0.committedInstType::SimdFloatMatMultAcc            0      0.00%     87.12% # Class of committed instruction. (Count)
system.cpu.commitStats0.committedInstType::SimdFloatSqrt            0      0.00%     87.12% # Class of committed instruction. (Count)
system.cpu.commitStats0.committedInstType::SimdReduceAdd            0      0.00%     87.12% # Class of committed instruction. (Count)
system.cpu.commitStats0.committedInstType::SimdReduceAlu            0      0.00%     87.12% # Class of committed instruction. (Count)
system.cpu.commitStats0.committedInstType::SimdReduceCmp            0      0.00%     87.12% # Class of committed instruction. (Count)
system.cpu.commitStats0.committedInstType::SimdFloatReduceAdd            0      0.00%     87.12% # Class of committed instruction. (Count)
system.cpu.commitStats0.committedInstType::SimdFloatReduceCmp            0      0.00%     87.12% # Class of committed instruction. (Count)
system.cpu.commitStats0.committedInstType::SimdAes            0      0.00%     87.12% # Class of committed instruction. (Count)
system.cpu.commitStats0.committedInstType::SimdAesMix            0      0.00%     87.12% # Class of committed instruction. (Count)
system.cpu.commitStats0.committedInstType::SimdSha1Hash            0      0.00%     87.12% # Class of committed instruction. (Count)
system.cpu.commitStats0.committedInstType::SimdSha1Hash2            0      0.00%     87.12% # Class of committed instruction. (Count)
system.cpu.commitStats0.committedInstType::SimdSha256Hash            0      0.00%     87.12% # Class of committed instruction. (Count)
system.cpu.commitStats0.committedInstType::SimdSha256Hash2            0      0.00%     87.12% # Class of committed instruction. (Count)
system.cpu.commitStats0.committedInstType::SimdShaSigma2            0      0.00%     87.12% # Class of committed instruction. (Count)
system.cpu.commitStats0.committedInstType::SimdShaSigma3            0      0.00%     87.12% # Class of committed instruction. (Count)
system.cpu.commitStats0.committedInstType::SimdPredAlu            0      0.00%     87.12% # Class of committed instruction. (Count)
system.cpu.commitStats0.committedInstType::Matrix            0      0.00%     87.12% # Class of committed instruction. (Count)
system.cpu.commitStats0.committedInstType::MatrixMov            0      0.00%     87.12% # Class of committed instruction. (Count)
system.cpu.commitStats0.committedInstType::MatrixOP            0      0.00%     87.12% # Class of committed instruction. (Count)
system.cpu.commitStats0.committedInstType::MemRead       362916     11.56%     98.67% # Class of committed instruction. (Count)
system.cpu.commitStats0.committedInstType::MemWrite        35621      1.13%     99.81% # Class of committed instruction. (Count)
system.cpu.commitStats0.committedInstType::FloatMemRead            0      0.00%     99.81% # Class of committed instruction. (Count)
system.cpu.commitStats0.committedInstType::FloatMemWrite         6012      0.19%    100.00% # Class of committed instruction. (Count)
system.cpu.commitStats0.committedInstType::IprAccess            0      0.00%    100.00% # Class of committed instruction. (Count)
system.cpu.commitStats0.committedInstType::InstPrefetch            0      0.00%    100.00% # Class of committed instruction. (Count)
system.cpu.commitStats0.committedInstType::VectorUnitStrideLoad            0      0.00%    100.00% # Class of committed instruction. (Count)
system.cpu.commitStats0.committedInstType::VectorUnitStrideStore            0      0.00%    100.00% # Class of committed instruction. (Count)
system.cpu.commitStats0.committedInstType::VectorUnitStrideMaskLoad            0      0.00%    100.00% # Class of committed instruction. (Count)
system.cpu.commitStats0.committedInstType::VectorUnitStrideMaskStore            0      0.00%    100.00% # Class of committed instruction. (Count)
system.cpu.commitStats0.committedInstType::VectorStridedLoad            0      0.00%    100.00% # Class of committed instruction. (Count)
system.cpu.commitStats0.committedInstType::VectorStridedStore            0      0.00%    100.00% # Class of committed instruction. (Count)
system.cpu.commitStats0.committedInstType::VectorIndexedLoad            0      0.00%    100.00% # Class of committed instruction. (Count)
system.cpu.commitStats0.committedInstType::VectorIndexedStore            0      0.00%    100.00% # Class of committed instruction. (Count)
system.cpu.commitStats0.committedInstType::VectorUnitStrideFaultOnlyFirstLoad            0      0.00%    100.00% # Class of committed instruction. (Count)
system.cpu.commitStats0.committedInstType::VectorWholeRegisterLoad            0      0.00%    100.00% # Class of committed instruction. (Count)
system.cpu.commitStats0.committedInstType::VectorWholeRegisterStore            0      0.00%    100.00% # Class of committed instruction. (Count)
system.cpu.commitStats0.committedInstType::VectorIntegerArith            0      0.00%    100.00% # Class of committed instruction. (Count)
system.cpu.commitStats0.committedInstType::VectorFloatArith            0      0.00%    100.00% # Class of committed instruction. (Count)
system.cpu.commitStats0.committedInstType::VectorFloatConvert            0      0.00%    100.00% # Class of committed instruction. (Count)
system.cpu.commitStats0.committedInstType::VectorIntegerReduce            0      0.00%    100.00% # Class of committed instruction. (Count)
system.cpu.commitStats0.committedInstType::VectorFloatReduce            0      0.00%    100.00% # Class of committed instruction. (Count)
system.cpu.commitStats0.committedInstType::VectorMisc            0      0.00%    100.00% # Class of committed instruction. (Count)
system.cpu.commitStats0.committedInstType::VectorIntegerExtension            0      0.00%    100.00% # Class of committed instruction. (Count)
system.cpu.commitStats0.committedInstType::VectorConfig            0      0.00%    100.00% # Class of committed instruction. (Count)
system.cpu.commitStats0.committedInstType::total      3140613                       # Class of committed instruction. (Count)
system.cpu.commitStats0.committedControl::IsControl       375045                       # Class of control type instructions committed (Count)
system.cpu.commitStats0.committedControl::IsDirectControl       369277                       # Class of control type instructions committed (Count)
system.cpu.commitStats0.committedControl::IsIndirectControl         5768                       # Class of control type instructions committed (Count)
system.cpu.commitStats0.committedControl::IsCondControl       361052                       # Class of control type instructions committed (Count)
system.cpu.commitStats0.committedControl::IsUncondControl        13993                       # Class of control type instructions committed (Count)
system.cpu.commitStats0.committedControl::IsCall         3973                       # Class of control type instructions committed (Count)
system.cpu.commitStats0.committedControl::IsReturn         3968                       # Class of control type instructions committed (Count)
system.cpu.dcache.demandHits::cpu.data         403473                       # number of demand (read+write) hits (Count)
system.cpu.dcache.demandHits::total            403473                       # number of demand (read+write) hits (Count)
system.cpu.dcache.overallHits::cpu.data        403473                       # number of overall hits (Count)
system.cpu.dcache.overallHits::total           403473                       # number of overall hits (Count)
system.cpu.dcache.demandMisses::cpu.data         1038                       # number of demand (read+write) misses (Count)
system.cpu.dcache.demandMisses::total            1038                       # number of demand (read+write) misses (Count)
system.cpu.dcache.overallMisses::cpu.data         1038                       # number of overall misses (Count)
system.cpu.dcache.overallMisses::total           1038                       # number of overall misses (Count)
system.cpu.dcache.demandMissLatency::cpu.data     57756000                       # number of demand (read+write) miss ticks (Tick)
system.cpu.dcache.demandMissLatency::total     57756000                       # number of demand (read+write) miss ticks (Tick)
system.cpu.dcache.overallMissLatency::cpu.data     57756000                       # number of overall miss ticks (Tick)
system.cpu.dcache.overallMissLatency::total     57756000                       # number of overall miss ticks (Tick)
system.cpu.dcache.demandAccesses::cpu.data       404511                       # number of demand (read+write) accesses (Count)
system.cpu.dcache.demandAccesses::total        404511                       # number of demand (read+write) accesses (Count)
system.cpu.dcache.overallAccesses::cpu.data       404511                       # number of overall (read+write) accesses (Count)
system.cpu.dcache.overallAccesses::total       404511                       # number of overall (read+write) accesses (Count)
system.cpu.dcache.demandMissRate::cpu.data     0.002566                       # miss rate for demand accesses (Ratio)
system.cpu.dcache.demandMissRate::total      0.002566                       # miss rate for demand accesses (Ratio)
system.cpu.dcache.overallMissRate::cpu.data     0.002566                       # miss rate for overall accesses (Ratio)
system.cpu.dcache.overallMissRate::total     0.002566                       # miss rate for overall accesses (Ratio)
system.cpu.dcache.demandAvgMissLatency::cpu.data 55641.618497                       # average overall miss latency in ticks ((Tick/Count))
system.cpu.dcache.demandAvgMissLatency::total 55641.618497                       # average overall miss latency in ticks ((Tick/Count))
system.cpu.dcache.overallAvgMissLatency::cpu.data 55641.618497                       # average overall miss latency ((Tick/Count))
system.cpu.dcache.overallAvgMissLatency::total 55641.618497                       # average overall miss latency ((Tick/Count))
system.cpu.dcache.blockedCycles::no_mshrs            0                       # number of cycles access was blocked (Cycle)
system.cpu.dcache.blockedCycles::no_targets            0                       # number of cycles access was blocked (Cycle)
system.cpu.dcache.blockedCauses::no_mshrs            0                       # number of times access was blocked (Count)
system.cpu.dcache.blockedCauses::no_targets            0                       # number of times access was blocked (Count)
system.cpu.dcache.avgBlocked::no_mshrs            nan                       # average number of cycles each access was blocked ((Cycle/Count))
system.cpu.dcache.avgBlocked::no_targets          nan                       # average number of cycles each access was blocked ((Cycle/Count))
system.cpu.dcache.writebacks::writebacks           81                       # number of writebacks (Count)
system.cpu.dcache.writebacks::total                81                       # number of writebacks (Count)
system.cpu.dcache.demandMshrMisses::cpu.data         1038                       # number of demand (read+write) MSHR misses (Count)
system.cpu.dcache.demandMshrMisses::total         1038                       # number of demand (read+write) MSHR misses (Count)
system.cpu.dcache.overallMshrMisses::cpu.data         1038                       # number of overall MSHR misses (Count)
system.cpu.dcache.overallMshrMisses::total         1038                       # number of overall MSHR misses (Count)
system.cpu.dcache.demandMshrMissLatency::cpu.data     56718000                       # number of demand (read+write) MSHR miss ticks (Tick)
system.cpu.dcache.demandMshrMissLatency::total     56718000                       # number of demand (read+write) MSHR miss ticks (Tick)
system.cpu.dcache.overallMshrMissLatency::cpu.data     56718000                       # number of overall MSHR miss ticks (Tick)
system.cpu.dcache.overallMshrMissLatency::total     56718000                       # number of overall MSHR miss ticks (Tick)
system.cpu.dcache.demandMshrMissRate::cpu.data     0.002566                       # mshr miss ratio for demand accesses (Ratio)
system.cpu.dcache.demandMshrMissRate::total     0.002566                       # mshr miss ratio for demand accesses (Ratio)
system.cpu.dcache.overallMshrMissRate::cpu.data     0.002566                       # mshr miss ratio for overall accesses (Ratio)
system.cpu.dcache.overallMshrMissRate::total     0.002566                       # mshr miss ratio for overall accesses (Ratio)
system.cpu.dcache.demandAvgMshrMissLatency::cpu.data 54641.618497                       # average overall mshr miss latency ((Tick/Count))
system.cpu.dcache.demandAvgMshrMissLatency::total 54641.618497                       # average overall mshr miss latency ((Tick/Count))
system.cpu.dcache.overallAvgMshrMissLatency::cpu.data 54641.618497                       # average overall mshr miss latency ((Tick/Count))
system.cpu.dcache.overallAvgMshrMissLatency::total 54641.618497                       # average overall mshr miss latency ((Tick/Count))
system.cpu.dcache.replacements                    190                       # number of replacements (Count)
system.cpu.dcache.LoadLockedReq.hits::cpu.data           10                       # number of LoadLockedReq hits (Count)
system.cpu.dcache.LoadLockedReq.hits::total           10                       # number of LoadLockedReq hits (Count)
system.cpu.dcache.LoadLockedReq.misses::cpu.data            1                       # number of LoadLockedReq misses (Count)
system.cpu.dcache.LoadLockedReq.misses::total            1                       # number of LoadLockedReq misses (Count)
system.cpu.dcache.LoadLockedReq.missLatency::cpu.data        79000                       # number of LoadLockedReq miss ticks (Tick)
system.cpu.dcache.LoadLockedReq.missLatency::total        79000                       # number of LoadLockedReq miss ticks (Tick)
system.cpu.dcache.LoadLockedReq.accesses::cpu.data           11                       # number of LoadLockedReq accesses(hits+misses) (Count)
system.cpu.dcache.LoadLockedReq.accesses::total           11                       # number of LoadLockedReq accesses(hits+misses) (Count)
system.cpu.dcache.LoadLockedReq.missRate::cpu.data     0.090909                       # miss rate for LoadLockedReq accesses (Ratio)
system.cpu.dcache.LoadLockedReq.missRate::total     0.090909                       # miss rate for LoadLockedReq accesses (Ratio)
system.cpu.dcache.LoadLockedReq.avgMissLatency::cpu.data        79000                       # average LoadLockedReq miss latency ((Tick/Count))
system.cpu.dcache.LoadLockedReq.avgMissLatency::total        79000                       # average LoadLockedReq miss latency ((Tick/Count))
system.cpu.dcache.LoadLockedReq.mshrMisses::cpu.data            1                       # number of LoadLockedReq MSHR misses (Count)
system.cpu.dcache.LoadLockedReq.mshrMisses::total            1                       # number of LoadLockedReq MSHR misses (Count)
system.cpu.dcache.LoadLockedReq.mshrMissLatency::cpu.data        78000                       # number of LoadLockedReq MSHR miss ticks (Tick)
system.cpu.dcache.LoadLockedReq.mshrMissLatency::total        78000                       # number of LoadLockedReq MSHR miss ticks (Tick)
system.cpu.dcache.LoadLockedReq.mshrMissRate::cpu.data     0.090909                       # mshr miss rate for LoadLockedReq accesses (Ratio)
system.cpu.dcache.LoadLockedReq.mshrMissRate::total     0.090909                       # mshr miss rate for LoadLockedReq accesses (Ratio)
system.cpu.dcache.LoadLockedReq.avgMshrMissLatency::cpu.data        78000                       # average LoadLockedReq mshr miss latency ((Tick/Count))
system.cpu.dcache.LoadLockedReq.avgMshrMissLatency::total        78000                       # average LoadLockedReq mshr miss latency ((Tick/Count))
system.cpu.dcache.ReadReq.hits::cpu.data       362001                       # number of ReadReq hits (Count)
system.cpu.dcache.ReadReq.hits::total          362001                       # number of ReadReq hits (Count)
system.cpu.dcache.ReadReq.misses::cpu.data          891                       # number of ReadReq misses (Count)
system.cpu.dcache.ReadReq.misses::total           891                       # number of ReadReq misses (Count)
system.cpu.dcache.ReadReq.missLatency::cpu.data     49952000                       # number of ReadReq miss ticks (Tick)
system.cpu.dcache.ReadReq.missLatency::total     49952000                       # number of ReadReq miss ticks (Tick)
system.cpu.dcache.ReadReq.accesses::cpu.data       362892                       # number of ReadReq accesses(hits+misses) (Count)
system.cpu.dcache.ReadReq.accesses::total       362892                       # number of ReadReq accesses(hits+misses) (Count)
system.cpu.dcache.ReadReq.missRate::cpu.data     0.002455                       # miss rate for ReadReq accesses (Ratio)
system.cpu.dcache.ReadReq.missRate::total     0.002455                       # miss rate for ReadReq accesses (Ratio)
system.cpu.dcache.ReadReq.avgMissLatency::cpu.data 56062.850730                       # average ReadReq miss latency ((Tick/Count))
system.cpu.dcache.ReadReq.avgMissLatency::total 56062.850730                       # average ReadReq miss latency ((Tick/Count))
system.cpu.dcache.ReadReq.mshrMisses::cpu.data          891                       # number of ReadReq MSHR misses (Count)
system.cpu.dcache.ReadReq.mshrMisses::total          891                       # number of ReadReq MSHR misses (Count)
system.cpu.dcache.ReadReq.mshrMissLatency::cpu.data     49061000                       # number of ReadReq MSHR miss ticks (Tick)
system.cpu.dcache.ReadReq.mshrMissLatency::total     49061000                       # number of ReadReq MSHR miss ticks (Tick)
system.cpu.dcache.ReadReq.mshrMissRate::cpu.data     0.002455                       # mshr miss rate for ReadReq accesses (Ratio)
system.cpu.dcache.ReadReq.mshrMissRate::total     0.002455                       # mshr miss rate for ReadReq accesses (Ratio)
system.cpu.dcache.ReadReq.avgMshrMissLatency::cpu.data 55062.850730                       # average ReadReq mshr miss latency ((Tick/Count))
system.cpu.dcache.ReadReq.avgMshrMissLatency::total 55062.850730                       # average ReadReq mshr miss latency ((Tick/Count))
system.cpu.dcache.StoreCondReq.hits::cpu.data           11                       # number of StoreCondReq hits (Count)
system.cpu.dcache.StoreCondReq.hits::total           11                       # number of StoreCondReq hits (Count)
system.cpu.dcache.StoreCondReq.accesses::cpu.data           11                       # number of StoreCondReq accesses(hits+misses) (Count)
system.cpu.dcache.StoreCondReq.accesses::total           11                       # number of StoreCondReq accesses(hits+misses) (Count)
system.cpu.dcache.SwapReq.hits::cpu.data           13                       # number of SwapReq hits (Count)
system.cpu.dcache.SwapReq.hits::total              13                       # number of SwapReq hits (Count)
system.cpu.dcache.SwapReq.accesses::cpu.data           13                       # number of SwapReq accesses(hits+misses) (Count)
system.cpu.dcache.SwapReq.accesses::total           13                       # number of SwapReq accesses(hits+misses) (Count)
system.cpu.dcache.WriteReq.hits::cpu.data        41472                       # number of WriteReq hits (Count)
system.cpu.dcache.WriteReq.hits::total          41472                       # number of WriteReq hits (Count)
system.cpu.dcache.WriteReq.misses::cpu.data          147                       # number of WriteReq misses (Count)
system.cpu.dcache.WriteReq.misses::total          147                       # number of WriteReq misses (Count)
system.cpu.dcache.WriteReq.missLatency::cpu.data      7804000                       # number of WriteReq miss ticks (Tick)
system.cpu.dcache.WriteReq.missLatency::total      7804000                       # number of WriteReq miss ticks (Tick)
system.cpu.dcache.WriteReq.accesses::cpu.data        41619                       # number of WriteReq accesses(hits+misses) (Count)
system.cpu.dcache.WriteReq.accesses::total        41619                       # number of WriteReq accesses(hits+misses) (Count)
system.cpu.dcache.WriteReq.missRate::cpu.data     0.003532                       # miss rate for WriteReq accesses (Ratio)
system.cpu.dcache.WriteReq.missRate::total     0.003532                       # miss rate for WriteReq accesses (Ratio)
system.cpu.dcache.WriteReq.avgMissLatency::cpu.data 53088.435374                       # average WriteReq miss latency ((Tick/Count))
system.cpu.dcache.WriteReq.avgMissLatency::total 53088.435374                       # average WriteReq miss latency ((Tick/Count))
system.cpu.dcache.WriteReq.mshrMisses::cpu.data          147                       # number of WriteReq MSHR misses (Count)
system.cpu.dcache.WriteReq.mshrMisses::total          147                       # number of WriteReq MSHR misses (Count)
system.cpu.dcache.WriteReq.mshrMissLatency::cpu.data      7657000                       # number of WriteReq MSHR miss ticks (Tick)
system.cpu.dcache.WriteReq.mshrMissLatency::total      7657000                       # number of WriteReq MSHR miss ticks (Tick)
system.cpu.dcache.WriteReq.mshrMissRate::cpu.data     0.003532                       # mshr miss rate for WriteReq accesses (Ratio)
system.cpu.dcache.WriteReq.mshrMissRate::total     0.003532                       # mshr miss rate for WriteReq accesses (Ratio)
system.cpu.dcache.WriteReq.avgMshrMissLatency::cpu.data 52088.435374                       # average WriteReq mshr miss latency ((Tick/Count))
system.cpu.dcache.WriteReq.avgMshrMissLatency::total 52088.435374                       # average WriteReq mshr miss latency ((Tick/Count))
system.cpu.dcache.power_state.pwrStateResidencyTicks::UNDEFINED   4651366000                       # Cumulative time (in ticks) in various power states (Tick)
system.cpu.dcache.tags.tagsInUse           816.367043                       # Average ticks per tags in use ((Tick/Count))
system.cpu.dcache.tags.totalRefs               404546                       # Total number of references to valid blocks. (Count)
system.cpu.dcache.tags.sampledRefs               1039                       # Sample count of references to valid blocks. (Count)
system.cpu.dcache.tags.avgRefs             389.360924                       # Average number of references to valid blocks. ((Count/Count))
system.cpu.dcache.tags.warmupTick              205000                       # The tick when the warmup percentage was hit. (Tick)
system.cpu.dcache.tags.occupancies::cpu.data   816.367043                       # Average occupied blocks per tick, per requestor ((Count/Tick))
system.cpu.dcache.tags.avgOccs::cpu.data     0.797233                       # Average percentage of cache occupancy ((Ratio/Tick))
system.cpu.dcache.tags.avgOccs::total        0.797233                       # Average percentage of cache occupancy ((Ratio/Tick))
system.cpu.dcache.tags.occupanciesTaskId::1024          849                       # Occupied blocks per task id (Count)
system.cpu.dcache.tags.ageTaskId_1024::0           14                       # Occupied blocks per task id, per block age (Count)
system.cpu.dcache.tags.ageTaskId_1024::1           34                       # Occupied blocks per task id, per block age (Count)
system.cpu.dcache.tags.ageTaskId_1024::3          801                       # Occupied blocks per task id, per block age (Count)
system.cpu.dcache.tags.ratioOccsTaskId::1024     0.829102                       # Ratio of occupied blocks and all blocks, per task id (Ratio)
system.cpu.dcache.tags.tagAccesses             810131                       # Number of tag accesses (Count)
system.cpu.dcache.tags.dataAccesses            810131                       # Number of data accesses (Count)
system.cpu.dcache.tags.power_state.pwrStateResidencyTicks::UNDEFINED   4651366000                       # Cumulative time (in ticks) in various power states (Tick)
system.cpu.dtb_walker_cache.blockedCycles::no_mshrs            0                       # number of cycles access was blocked (Cycle)
system.cpu.dtb_walker_cache.blockedCycles::no_targets            0                       # number of cycles access was blocked (Cycle)
system.cpu.dtb_walker_cache.blockedCauses::no_mshrs            0                       # number of times access was blocked (Count)
system.cpu.dtb_walker_cache.blockedCauses::no_targets            0                       # number of times access was blocked (Count)
system.cpu.dtb_walker_cache.avgBlocked::no_mshrs          nan                       # average number of cycles each access was blocked ((Cycle/Count))
system.cpu.dtb_walker_cache.avgBlocked::no_targets          nan                       # average number of cycles each access was blocked ((Cycle/Count))
system.cpu.dtb_walker_cache.replacements            0                       # number of replacements (Count)
system.cpu.dtb_walker_cache.power_state.pwrStateResidencyTicks::UNDEFINED   4651366000                       # Cumulative time (in ticks) in various power states (Tick)
system.cpu.dtb_walker_cache.tags.tagsInUse            0                       # Average ticks per tags in use ((Tick/Count))
system.cpu.dtb_walker_cache.tags.totalRefs            0                       # Total number of references to valid blocks. (Count)
system.cpu.dtb_walker_cache.tags.sampledRefs            0                       # Sample count of references to valid blocks. (Count)
system.cpu.dtb_walker_cache.tags.avgRefs          nan                       # Average number of references to valid blocks. ((Count/Count))
system.cpu.dtb_walker_cache.tags.warmupTick            0                       # The tick when the warmup percentage was hit. (Tick)
system.cpu.dtb_walker_cache.tags.tagAccesses            0                       # Number of tag accesses (Count)
system.cpu.dtb_walker_cache.tags.dataAccesses            0                       # Number of data accesses (Count)
system.cpu.dtb_walker_cache.tags.power_state.pwrStateResidencyTicks::UNDEFINED   4651366000                       # Cumulative time (in ticks) in various power states (Tick)
system.cpu.exec_context.thread_0.numMatAluAccesses            0                       # Number of matrix alu accesses (Count)
system.cpu.exec_context.thread_0.numCallsReturns         7941                       # Number of times a function call or return occured (Count)
system.cpu.exec_context.thread_0.numMatInsts            0                       # Number of matrix instructions (Count)
system.cpu.exec_context.thread_0.numIdleCycles     0.002000                       # Number of idle cycles (Cycle)
system.cpu.exec_context.thread_0.numBusyCycles 9302731.998000                       # Number of busy cycles (Cycle)
system.cpu.exec_context.thread_0.notIdleFraction     1.000000                       # Percentage of non-idle cycles (Ratio)
system.cpu.exec_context.thread_0.idleFraction     0.000000                       # Percentage of idle cycles (Ratio)
system.cpu.executeStats0.numInsts                   0                       # Number of executed instructions (Count)
system.cpu.executeStats0.numNop                     0                       # Number of nop insts executed (Count)
system.cpu.executeStats0.numBranches                0                       # Number of branches executed (Count)
system.cpu.executeStats0.numLoadInsts               0                       # Number of load instructions executed (Count)
system.cpu.executeStats0.numStoreInsts         404549                       # Number of stores executed (Count)
system.cpu.executeStats0.instRate                   0                       # Inst execution rate ((Count/Cycle))
system.cpu.executeStats0.numFpAluAccesses         6012                       # Number of float alu accesses (Count)
system.cpu.executeStats0.numFpRegReads           6012                       # Number of times the floating registers were read (Count)
system.cpu.executeStats0.numFpRegWrites             0                       # Number of times the floating registers were written (Count)
system.cpu.executeStats0.numIntAluAccesses      3135733                       # Number of integer alu accesses (Count)
system.cpu.executeStats0.numIntRegReads       4502923                       # Number of times the integer registers were read (Count)
system.cpu.executeStats0.numIntRegWrites      2726822                       # Number of times the integer registers were written (Count)
system.cpu.executeStats0.numMemRefs            404549                       # Number of memory refs (Count)
system.cpu.executeStats0.numMiscRegReads         8528                       # Number of times the Misc registers were read (Count)
system.cpu.executeStats0.numVecAluAccesses            0                       # Number of vector alu accesses (Count)
system.cpu.executeStats0.numDiscardedOps            0                       # Number of ops (including micro ops) which were discarded before commit (Count)
system.cpu.fetchStats0.numInsts               3140566                       # Number of instructions fetched (thread level) (Count)
system.cpu.fetchStats0.numOps                 3140613                       # Number of ops (including micro ops) fetched (thread level) (Count)
system.cpu.fetchStats0.fetchRate             0.337596                       # Number of inst fetches per cycle ((Count/Cycle))
system.cpu.fetchStats0.numBranches             375045                       # Number of branches fetched (Count)
system.cpu.fetchStats0.branchRate            0.040316                       # Number of branch fetches per cycle (Ratio)
system.cpu.fetchStats0.numFetchSuspends             0                       # Number of times Execute suspended instruction fetching (Count)
system.cpu.icache.demandHits::cpu.inst        4165557                       # number of demand (read+write) hits (Count)
system.cpu.icache.demandHits::total           4165557                       # number of demand (read+write) hits (Count)
system.cpu.icache.overallHits::cpu.inst       4165557                       # number of overall hits (Count)
system.cpu.icache.overallHits::total          4165557                       # number of overall hits (Count)
system.cpu.icache.demandMisses::cpu.inst          394                       # number of demand (read+write) misses (Count)
system.cpu.icache.demandMisses::total             394                       # number of demand (read+write) misses (Count)
system.cpu.icache.overallMisses::cpu.inst          394                       # number of overall misses (Count)
system.cpu.icache.overallMisses::total            394                       # number of overall misses (Count)
system.cpu.icache.demandMissLatency::cpu.inst     22803000                       # number of demand (read+write) miss ticks (Tick)
system.cpu.icache.demandMissLatency::total     22803000                       # number of demand (read+write) miss ticks (Tick)
system.cpu.icache.overallMissLatency::cpu.inst     22803000                       # number of overall miss ticks (Tick)
system.cpu.icache.overallMissLatency::total     22803000                       # number of overall miss ticks (Tick)
system.cpu.icache.demandAccesses::cpu.inst      4165951                       # number of demand (read+write) accesses (Count)
system.cpu.icache.demandAccesses::total       4165951                       # number of demand (read+write) accesses (Count)
system.cpu.icache.overallAccesses::cpu.inst      4165951                       # number of overall (read+write) accesses (Count)
system.cpu.icache.overallAccesses::total      4165951                       # number of overall (read+write) accesses (Count)
system.cpu.icache.demandMissRate::cpu.inst     0.000095                       # miss rate for demand accesses (Ratio)
system.cpu.icache.demandMissRate::total      0.000095                       # miss rate for demand accesses (Ratio)
system.cpu.icache.overallMissRate::cpu.inst     0.000095                       # miss rate for overall accesses (Ratio)
system.cpu.icache.overallMissRate::total     0.000095                       # miss rate for overall accesses (Ratio)
system.cpu.icache.demandAvgMissLatency::cpu.inst 57875.634518                       # average overall miss latency in ticks ((Tick/Count))
system.cpu.icache.demandAvgMissLatency::total 57875.634518                       # average overall miss latency in ticks ((Tick/Count))
system.cpu.icache.overallAvgMissLatency::cpu.inst 57875.634518                       # average overall miss latency ((Tick/Count))
system.cpu.icache.overallAvgMissLatency::total 57875.634518                       # average overall miss latency ((Tick/Count))
system.cpu.icache.blockedCycles::no_mshrs            0                       # number of cycles access was blocked (Cycle)
system.cpu.icache.blockedCycles::no_targets            0                       # number of cycles access was blocked (Cycle)
system.cpu.icache.blockedCauses::no_mshrs            0                       # number of times access was blocked (Count)
system.cpu.icache.blockedCauses::no_targets            0                       # number of times access was blocked (Count)
system.cpu.icache.avgBlocked::no_mshrs            nan                       # average number of cycles each access was blocked ((Cycle/Count))
system.cpu.icache.avgBlocked::no_targets          nan                       # average number of cycles each access was blocked ((Cycle/Count))
system.cpu.icache.writebacks::writebacks           78                       # number of writebacks (Count)
system.cpu.icache.writebacks::total                78                       # number of writebacks (Count)
system.cpu.icache.demandMshrMisses::cpu.inst          394                       # number of demand (read+write) MSHR misses (Count)
system.cpu.icache.demandMshrMisses::total          394                       # number of demand (read+write) MSHR misses (Count)
system.cpu.icache.overallMshrMisses::cpu.inst          394                       # number of overall MSHR misses (Count)
system.cpu.icache.overallMshrMisses::total          394                       # number of overall MSHR misses (Count)
system.cpu.icache.demandMshrMissLatency::cpu.inst     22409000                       # number of demand (read+write) MSHR miss ticks (Tick)
system.cpu.icache.demandMshrMissLatency::total     22409000                       # number of demand (read+write) MSHR miss ticks (Tick)
system.cpu.icache.overallMshrMissLatency::cpu.inst     22409000                       # number of overall MSHR miss ticks (Tick)
system.cpu.icache.overallMshrMissLatency::total     22409000                       # number of overall MSHR miss ticks (Tick)
system.cpu.icache.demandMshrMissRate::cpu.inst     0.000095                       # mshr miss ratio for demand accesses (Ratio)
system.cpu.icache.demandMshrMissRate::total     0.000095                       # mshr miss ratio for demand accesses (Ratio)
system.cpu.icache.overallMshrMissRate::cpu.inst     0.000095                       # mshr miss ratio for overall accesses (Ratio)
system.cpu.icache.overallMshrMissRate::total     0.000095                       # mshr miss ratio for overall accesses (Ratio)
system.cpu.icache.demandAvgMshrMissLatency::cpu.inst 56875.634518                       # average overall mshr miss latency ((Tick/Count))
system.cpu.icache.demandAvgMshrMissLatency::total 56875.634518                       # average overall mshr miss latency ((Tick/Count))
system.cpu.icache.overallAvgMshrMissLatency::cpu.inst 56875.634518                       # average overall mshr miss latency ((Tick/Count))
system.cpu.icache.overallAvgMshrMissLatency::total 56875.634518                       # average overall mshr miss latency ((Tick/Count))
system.cpu.icache.replacements                     78                       # number of replacements (Count)
system.cpu.icache.ReadReq.hits::cpu.inst      4165557                       # number of ReadReq hits (Count)
system.cpu.icache.ReadReq.hits::total         4165557                       # number of ReadReq hits (Count)
system.cpu.icache.ReadReq.misses::cpu.inst          394                       # number of ReadReq misses (Count)
system.cpu.icache.ReadReq.misses::total           394                       # number of ReadReq misses (Count)
system.cpu.icache.ReadReq.missLatency::cpu.inst     22803000                       # number of ReadReq miss ticks (Tick)
system.cpu.icache.ReadReq.missLatency::total     22803000                       # number of ReadReq miss ticks (Tick)
system.cpu.icache.ReadReq.accesses::cpu.inst      4165951                       # number of ReadReq accesses(hits+misses) (Count)
system.cpu.icache.ReadReq.accesses::total      4165951                       # number of ReadReq accesses(hits+misses) (Count)
system.cpu.icache.ReadReq.missRate::cpu.inst     0.000095                       # miss rate for ReadReq accesses (Ratio)
system.cpu.icache.ReadReq.missRate::total     0.000095                       # miss rate for ReadReq accesses (Ratio)
system.cpu.icache.ReadReq.avgMissLatency::cpu.inst 57875.634518                       # average ReadReq miss latency ((Tick/Count))
system.cpu.icache.ReadReq.avgMissLatency::total 57875.634518                       # average ReadReq miss latency ((Tick/Count))
system.cpu.icache.ReadReq.mshrMisses::cpu.inst          394                       # number of ReadReq MSHR misses (Count)
system.cpu.icache.ReadReq.mshrMisses::total          394                       # number of ReadReq MSHR misses (Count)
system.cpu.icache.ReadReq.mshrMissLatency::cpu.inst     22409000                       # number of ReadReq MSHR miss ticks (Tick)
system.cpu.icache.ReadReq.mshrMissLatency::total     22409000                       # number of ReadReq MSHR miss ticks (Tick)
system.cpu.icache.ReadReq.mshrMissRate::cpu.inst     0.000095                       # mshr miss rate for ReadReq accesses (Ratio)
system.cpu.icache.ReadReq.mshrMissRate::total     0.000095                       # mshr miss rate for ReadReq accesses (Ratio)
system.cpu.icache.ReadReq.avgMshrMissLatency::cpu.inst 56875.634518                       # average ReadReq mshr miss latency ((Tick/Count))
system.cpu.icache.ReadReq.avgMshrMissLatency::total 56875.634518                       # average ReadReq mshr miss latency ((Tick/Count))
system.cpu.icache.power_state.pwrStateResidencyTicks::UNDEFINED   4651366000                       # Cumulative time (in ticks) in various power states (Tick)
system.cpu.icache.tags.tagsInUse           211.622808                       # Average ticks per tags in use ((Tick/Count))
system.cpu.icache.tags.totalRefs              4165951                       # Total number of references to valid blocks. (Count)
system.cpu.icache.tags.sampledRefs                394                       # Sample count of references to valid blocks. (Count)
system.cpu.icache.tags.avgRefs           10573.479695                       # Average number of references to valid blocks. ((Count/Count))
system.cpu.icache.tags.warmupTick               77000                       # The tick when the warmup percentage was hit. (Tick)
system.cpu.icache.tags.occupancies::cpu.inst   211.622808                       # Average occupied blocks per tick, per requestor ((Count/Tick))
system.cpu.icache.tags.avgOccs::cpu.inst     0.413326                       # Average percentage of cache occupancy ((Ratio/Tick))
system.cpu.icache.tags.avgOccs::total        0.413326                       # Average percentage of cache occupancy ((Ratio/Tick))
system.cpu.icache.tags.occupanciesTaskId::1024          316                       # Occupied blocks per task id (Count)
system.cpu.icache.tags.ageTaskId_1024::0           72                       # Occupied blocks per task id, per block age (Count)
system.cpu.icache.tags.ageTaskId_1024::1           71                       # Occupied blocks per task id, per block age (Count)
system.cpu.icache.tags.ageTaskId_1024::3          173                       # Occupied blocks per task id, per block age (Count)
system.cpu.icache.tags.ratioOccsTaskId::1024     0.617188                       # Ratio of occupied blocks and all blocks, per task id (Ratio)
system.cpu.icache.tags.tagAccesses            8332296                       # Number of tag accesses (Count)
system.cpu.icache.tags.dataAccesses           8332296                       # Number of data accesses (Count)
system.cpu.icache.tags.power_state.pwrStateResidencyTicks::UNDEFINED   4651366000                       # Cumulative time (in ticks) in various power states (Tick)
system.cpu.itb_walker_cache.blockedCycles::no_mshrs            0                       # number of cycles access was blocked (Cycle)
system.cpu.itb_walker_cache.blockedCycles::no_targets            0                       # number of cycles access was blocked (Cycle)
system.cpu.itb_walker_cache.blockedCauses::no_mshrs            0                       # number of times access was blocked (Count)
system.cpu.itb_walker_cache.blockedCauses::no_targets            0                       # number of times access was blocked (Count)
system.cpu.itb_walker_cache.avgBlocked::no_mshrs          nan                       # average number of cycles each access was blocked ((Cycle/Count))
system.cpu.itb_walker_cache.avgBlocked::no_targets          nan                       # average number of cycles each access was blocked ((Cycle/Count))
system.cpu.itb_walker_cache.replacements            0                       # number of replacements (Count)
system.cpu.itb_walker_cache.power_state.pwrStateResidencyTicks::UNDEFINED   4651366000                       # Cumulative time (in ticks) in various power states (Tick)
system.cpu.itb_walker_cache.tags.tagsInUse            0                       # Average ticks per tags in use ((Tick/Count))
system.cpu.itb_walker_cache.tags.totalRefs            0                       # Total number of references to valid blocks. (Count)
system.cpu.itb_walker_cache.tags.sampledRefs            0                       # Sample count of references to valid blocks. (Count)
system.cpu.itb_walker_cache.tags.avgRefs          nan                       # Average number of references to valid blocks. ((Count/Count))
system.cpu.itb_walker_cache.tags.warmupTick            0                       # The tick when the warmup percentage was hit. (Tick)
system.cpu.itb_walker_cache.tags.tagAccesses            0                       # Number of tag accesses (Count)
system.cpu.itb_walker_cache.tags.dataAccesses            0                       # Number of data accesses (Count)
system.cpu.itb_walker_cache.tags.power_state.pwrStateResidencyTicks::UNDEFINED   4651366000                       # Cumulative time (in ticks) in various power states (Tick)
system.cpu.mmu.dtb.readHits                         0                       # read hits (Count)
system.cpu.mmu.dtb.readMisses                       0                       # read misses (Count)
system.cpu.mmu.dtb.readAccesses                     0                       # read accesses (Count)
system.cpu.mmu.dtb.writeHits                        0                       # write hits (Count)
system.cpu.mmu.dtb.writeMisses                      0                       # write misses (Count)
system.cpu.mmu.dtb.writeAccesses                    0                       # write accesses (Count)
system.cpu.mmu.dtb.hits                             0                       # Total TLB (read and write) hits (Count)
system.cpu.mmu.dtb.misses                           0                       # Total TLB (read and write) misses (Count)
system.cpu.mmu.dtb.accesses                         0                       # Total TLB (read and write) accesses (Count)
system.cpu.mmu.dtb.walker.power_state.pwrStateResidencyTicks::UNDEFINED   4651366000                       # Cumulative time (in ticks) in various power states (Tick)
system.cpu.mmu.itb.readHits                         0                       # read hits (Count)
system.cpu.mmu.itb.readMisses                       0                       # read misses (Count)
system.cpu.mmu.itb.readAccesses                     0                       # read accesses (Count)
system.cpu.mmu.itb.writeHits                        0                       # write hits (Count)
system.cpu.mmu.itb.writeMisses                      0                       # write misses (Count)
system.cpu.mmu.itb.writeAccesses                    0                       # write accesses (Count)
system.cpu.mmu.itb.hits                             0                       # Total TLB (read and write) hits (Count)
system.cpu.mmu.itb.misses                           0                       # Total TLB (read and write) misses (Count)
system.cpu.mmu.itb.accesses                         0                       # Total TLB (read and write) accesses (Count)
system.cpu.mmu.itb.walker.power_state.pwrStateResidencyTicks::UNDEFINED   4651366000                       # Cumulative time (in ticks) in various power states (Tick)
system.cpu.power_state.pwrStateResidencyTicks::ON   4651366000                       # Cumulative time (in ticks) in various power states (Tick)
system.cpu.thread_0.numInsts                        0                       # Number of Instructions committed (Count)
system.cpu.thread_0.numOps                          0                       # Number of Ops committed (Count)
system.cpu.thread_0.numMemRefs                      0                       # Number of Memory References (Count)
system.cpu.workload.numSyscalls                   516                       # Number of system calls (Count)
system.cpu_clk_domain.clock                       500                       # Clock period in ticks (Tick)
system.cpu_voltage_domain.voltage                   1                       # Voltage in Volts (Volt)
system.mem_ctrls.avgPriority_writebacks::samples       159.00                       # Average QoS priority value for accepted requests (Count)
system.mem_ctrls.avgPriority_cpu.inst::samples       389.00                       # Average QoS priority value for accepted requests (Count)
system.mem_ctrls.avgPriority_cpu.data::samples      1034.00                       # Average QoS priority value for accepted requests (Count)
system.mem_ctrls.priorityMinLatency      0.000000018750                       # per QoS priority minimum request to response latency (Second)
system.mem_ctrls.priorityMaxLatency      0.008848222750                       # per QoS priority maximum request to response latency (Second)
system.mem_ctrls.numReadWriteTurnArounds            8                       # Number of turnarounds from READ to WRITE (Count)
system.mem_ctrls.numWriteReadTurnArounds            8                       # Number of turnarounds from WRITE to READ (Count)
system.mem_ctrls.numStayReadState                4195                       # Number of times bus staying in READ state (Count)
system.mem_ctrls.numStayWriteState                129                       # Number of times bus staying in WRITE state (Count)
system.mem_ctrls.readReqs                        1433                       # Number of read requests accepted (Count)
system.mem_ctrls.writeReqs                        159                       # Number of write requests accepted (Count)
system.mem_ctrls.readBursts                      1433                       # Number of controller read bursts, including those serviced by the write queue (Count)
system.mem_ctrls.writeBursts                      159                       # Number of controller write bursts, including those merged in the write queue (Count)
system.mem_ctrls.servicedByWrQ                     10                       # Number of controller read bursts serviced by the write queue (Count)
system.mem_ctrls.mergedWrBursts                     0                       # Number of controller write bursts merged with an existing one (Count)
system.mem_ctrls.neitherReadNorWriteReqs            0                       # Number of requests that are neither read nor write (Count)
system.mem_ctrls.avgRdQLen                       1.00                       # Average read queue length when enqueuing ((Count/Tick))
system.mem_ctrls.avgWrQLen                      25.77                       # Average write queue length when enqueuing ((Count/Tick))
system.mem_ctrls.numRdRetry                         0                       # Number of times read queue was full causing retry (Count)
system.mem_ctrls.numWrRetry                         0                       # Number of times write queue was full causing retry (Count)
system.mem_ctrls.readPktSize::0                     0                       # Read request sizes (log2) (Count)
system.mem_ctrls.readPktSize::1                     0                       # Read request sizes (log2) (Count)
system.mem_ctrls.readPktSize::2                     0                       # Read request sizes (log2) (Count)
system.mem_ctrls.readPktSize::3                     0                       # Read request sizes (log2) (Count)
system.mem_ctrls.readPktSize::4                     0                       # Read request sizes (log2) (Count)
system.mem_ctrls.readPktSize::5                     0                       # Read request sizes (log2) (Count)
system.mem_ctrls.readPktSize::6                  1433                       # Read request sizes (log2) (Count)
system.mem_ctrls.writePktSize::0                    0                       # Write request sizes (log2) (Count)
system.mem_ctrls.writePktSize::1                    0                       # Write request sizes (log2) (Count)
system.mem_ctrls.writePktSize::2                    0                       # Write request sizes (log2) (Count)
system.mem_ctrls.writePktSize::3                    0                       # Write request sizes (log2) (Count)
system.mem_ctrls.writePktSize::4                    0                       # Write request sizes (log2) (Count)
system.mem_ctrls.writePktSize::5                    0                       # Write request sizes (log2) (Count)
system.mem_ctrls.writePktSize::6                  159                       # Write request sizes (log2) (Count)
system.mem_ctrls.rdQLenPdf::0                    1423                       # What read queue length does an incoming req see (Count)
system.mem_ctrls.rdQLenPdf::1                       0                       # What read queue length does an incoming req see (Count)
system.mem_ctrls.rdQLenPdf::2                       0                       # What read queue length does an incoming req see (Count)
system.mem_ctrls.rdQLenPdf::3                       0                       # What read queue length does an incoming req see (Count)
system.mem_ctrls.rdQLenPdf::4                       0                       # What read queue length does an incoming req see (Count)
system.mem_ctrls.rdQLenPdf::5                       0                       # What read queue length does an incoming req see (Count)
system.mem_ctrls.rdQLenPdf::6                       0                       # What read queue length does an incoming req see (Count)
system.mem_ctrls.rdQLenPdf::7                       0                       # What read queue length does an incoming req see (Count)
system.mem_ctrls.rdQLenPdf::8                       0                       # What read queue length does an incoming req see (Count)
system.mem_ctrls.rdQLenPdf::9                       0                       # What read queue length does an incoming req see (Count)
system.mem_ctrls.rdQLenPdf::10                      0                       # What read queue length does an incoming req see (Count)
system.mem_ctrls.rdQLenPdf::11                      0                       # What read queue length does an incoming req see (Count)
system.mem_ctrls.rdQLenPdf::12                      0                       # What read queue length does an incoming req see (Count)
system.mem_ctrls.rdQLenPdf::13                      0                       # What read queue length does an incoming req see (Count)
system.mem_ctrls.rdQLenPdf::14                      0                       # What read queue length does an incoming req see (Count)
system.mem_ctrls.rdQLenPdf::15                      0                       # What read queue length does an incoming req see (Count)
system.mem_ctrls.rdQLenPdf::16                      0                       # What read queue length does an incoming req see (Count)
system.mem_ctrls.rdQLenPdf::17                      0                       # What read queue length does an incoming req see (Count)
system.mem_ctrls.rdQLenPdf::18                      0                       # What read queue length does an incoming req see (Count)
system.mem_ctrls.rdQLenPdf::19                      0                       # What read queue length does an incoming req see (Count)
system.mem_ctrls.rdQLenPdf::20                      0                       # What read queue length does an incoming req see (Count)
system.mem_ctrls.rdQLenPdf::21                      0                       # What read queue length does an incoming req see (Count)
system.mem_ctrls.rdQLenPdf::22                      0                       # What read queue length does an incoming req see (Count)
system.mem_ctrls.rdQLenPdf::23                      0                       # What read queue length does an incoming req see (Count)
system.mem_ctrls.rdQLenPdf::24                      0                       # What read queue length does an incoming req see (Count)
system.mem_ctrls.rdQLenPdf::25                      0                       # What read queue length does an incoming req see (Count)
system.mem_ctrls.rdQLenPdf::26                      0                       # What read queue length does an incoming req see (Count)
system.mem_ctrls.rdQLenPdf::27                      0                       # What read queue length does an incoming req see (Count)
system.mem_ctrls.rdQLenPdf::28                      0                       # What read queue length does an incoming req see (Count)
system.mem_ctrls.rdQLenPdf::29                      0                       # What read queue length does an incoming req see (Count)
system.mem_ctrls.rdQLenPdf::30                      0                       # What read queue length does an incoming req see (Count)
system.mem_ctrls.rdQLenPdf::31                      0                       # What read queue length does an incoming req see (Count)
system.mem_ctrls.wrQLenPdf::0                       1                       # What write queue length does an incoming req see (Count)
system.mem_ctrls.wrQLenPdf::1                       1                       # What write queue length does an incoming req see (Count)
system.mem_ctrls.wrQLenPdf::2                       1                       # What write queue length does an incoming req see (Count)
system.mem_ctrls.wrQLenPdf::3                       1                       # What write queue length does an incoming req see (Count)
system.mem_ctrls.wrQLenPdf::4                       1                       # What write queue length does an incoming req see (Count)
system.mem_ctrls.wrQLenPdf::5                       1                       # What write queue length does an incoming req see (Count)
system.mem_ctrls.wrQLenPdf::6                       1                       # What write queue length does an incoming req see (Count)
system.mem_ctrls.wrQLenPdf::7                       1                       # What write queue length does an incoming req see (Count)
system.mem_ctrls.wrQLenPdf::8                       1                       # What write queue length does an incoming req see (Count)
system.mem_ctrls.wrQLenPdf::9                       1                       # What write queue length does an incoming req see (Count)
system.mem_ctrls.wrQLenPdf::10                      1                       # What write queue length does an incoming req see (Count)
system.mem_ctrls.wrQLenPdf::11                      1                       # What write queue length does an incoming req see (Count)
system.mem_ctrls.wrQLenPdf::12                      1                       # What write queue length does an incoming req see (Count)
system.mem_ctrls.wrQLenPdf::13                      1                       # What write queue length does an incoming req see (Count)
system.mem_ctrls.wrQLenPdf::14                      1                       # What write queue length does an incoming req see (Count)
system.mem_ctrls.wrQLenPdf::15                      5                       # What write queue length does an incoming req see (Count)
system.mem_ctrls.wrQLenPdf::16                      6                       # What write queue length does an incoming req see (Count)
system.mem_ctrls.wrQLenPdf::17                      9                       # What write queue length does an incoming req see (Count)
system.mem_ctrls.wrQLenPdf::18                      9                       # What write queue length does an incoming req see (Count)
system.mem_ctrls.wrQLenPdf::19                      9                       # What write queue length does an incoming req see (Count)
system.mem_ctrls.wrQLenPdf::20                      9                       # What write queue length does an incoming req see (Count)
system.mem_ctrls.wrQLenPdf::21                      9                       # What write queue length does an incoming req see (Count)
system.mem_ctrls.wrQLenPdf::22                      8                       # What write queue length does an incoming req see (Count)
system.mem_ctrls.wrQLenPdf::23                      8                       # What write queue length does an incoming req see (Count)
system.mem_ctrls.wrQLenPdf::24                      8                       # What write queue length does an incoming req see (Count)
system.mem_ctrls.wrQLenPdf::25                      8                       # What write queue length does an incoming req see (Count)
system.mem_ctrls.wrQLenPdf::26                      8                       # What write queue length does an incoming req see (Count)
system.mem_ctrls.wrQLenPdf::27                      8                       # What write queue length does an incoming req see (Count)
system.mem_ctrls.wrQLenPdf::28                      8                       # What write queue length does an incoming req see (Count)
system.mem_ctrls.wrQLenPdf::29                      8                       # What write queue length does an incoming req see (Count)
system.mem_ctrls.wrQLenPdf::30                      8                       # What write queue length does an incoming req see (Count)
system.mem_ctrls.wrQLenPdf::31                      8                       # What write queue length does an incoming req see (Count)
system.mem_ctrls.wrQLenPdf::32                      8                       # What write queue length does an incoming req see (Count)
system.mem_ctrls.wrQLenPdf::33                      0                       # What write queue length does an incoming req see (Count)
system.mem_ctrls.wrQLenPdf::34                      0                       # What write queue length does an incoming req see (Count)
system.mem_ctrls.wrQLenPdf::35                      0                       # What write queue length does an incoming req see (Count)
system.mem_ctrls.wrQLenPdf::36                      0                       # What write queue length does an incoming req see (Count)
system.mem_ctrls.wrQLenPdf::37                      0                       # What write queue length does an incoming req see (Count)
system.mem_ctrls.wrQLenPdf::38                      0                       # What write queue length does an incoming req see (Count)
system.mem_ctrls.wrQLenPdf::39                      0                       # What write queue length does an incoming req see (Count)
system.mem_ctrls.wrQLenPdf::40                      0                       # What write queue length does an incoming req see (Count)
system.mem_ctrls.wrQLenPdf::41                      0                       # What write queue length does an incoming req see (Count)
system.mem_ctrls.wrQLenPdf::42                      0                       # What write queue length does an incoming req see (Count)
system.mem_ctrls.wrQLenPdf::43                      0                       # What write queue length does an incoming req see (Count)
system.mem_ctrls.wrQLenPdf::44                      0                       # What write queue length does an incoming req see (Count)
system.mem_ctrls.wrQLenPdf::45                      0                       # What write queue length does an incoming req see (Count)
system.mem_ctrls.wrQLenPdf::46                      0                       # What write queue length does an incoming req see (Count)
system.mem_ctrls.wrQLenPdf::47                      0                       # What write queue length does an incoming req see (Count)
system.mem_ctrls.wrQLenPdf::48                      0                       # What write queue length does an incoming req see (Count)
system.mem_ctrls.wrQLenPdf::49                      0                       # What write queue length does an incoming req see (Count)
system.mem_ctrls.wrQLenPdf::50                      0                       # What write queue length does an incoming req see (Count)
system.mem_ctrls.wrQLenPdf::51                      0                       # What write queue length does an incoming req see (Count)
system.mem_ctrls.wrQLenPdf::52                      0                       # What write queue length does an incoming req see (Count)
system.mem_ctrls.wrQLenPdf::53                      0                       # What write queue length does an incoming req see (Count)
system.mem_ctrls.wrQLenPdf::54                      0                       # What write queue length does an incoming req see (Count)
system.mem_ctrls.wrQLenPdf::55                      0                       # What write queue length does an incoming req see (Count)
system.mem_ctrls.wrQLenPdf::56                      0                       # What write queue length does an incoming req see (Count)
system.mem_ctrls.wrQLenPdf::57                      0                       # What write queue length does an incoming req see (Count)
system.mem_ctrls.wrQLenPdf::58                      0                       # What write queue length does an incoming req see (Count)
system.mem_ctrls.wrQLenPdf::59                      0                       # What write queue length does an incoming req see (Count)
system.mem_ctrls.wrQLenPdf::60                      0                       # What write queue length does an incoming req see (Count)
system.mem_ctrls.wrQLenPdf::61                      0                       # What write queue length does an incoming req see (Count)
system.mem_ctrls.wrQLenPdf::62                      0                       # What write queue length does an incoming req see (Count)
system.mem_ctrls.wrQLenPdf::63                      0                       # What write queue length does an incoming req see (Count)
system.mem_ctrls.rdPerTurnAround::samples            8                       # Reads before turning the bus around for writes (Count)
system.mem_ctrls.rdPerTurnAround::mean     175.125000                       # Reads before turning the bus around for writes (Count)
system.mem_ctrls.rdPerTurnAround::gmean    101.737501                       # Reads before turning the bus around for writes (Count)
system.mem_ctrls.rdPerTurnAround::stdev    212.822822                       # Reads before turning the bus around for writes (Count)
system.mem_ctrls.rdPerTurnAround::0-31              1     12.50%     12.50% # Reads before turning the bus around for writes (Count)
system.mem_ctrls.rdPerTurnAround::32-63             2     25.00%     37.50% # Reads before turning the bus around for writes (Count)
system.mem_ctrls.rdPerTurnAround::64-95             2     25.00%     62.50% # Reads before turning the bus around for writes (Count)
system.mem_ctrls.rdPerTurnAround::96-127            1     12.50%     75.00% # Reads before turning the bus around for writes (Count)
system.mem_ctrls.rdPerTurnAround::320-351            1     12.50%     87.50% # Reads before turning the bus around for writes (Count)
system.mem_ctrls.rdPerTurnAround::640-671            1     12.50%    100.00% # Reads before turning the bus around for writes (Count)
system.mem_ctrls.rdPerTurnAround::total             8                       # Reads before turning the bus around for writes (Count)
system.mem_ctrls.wrPerTurnAround::samples            8                       # Writes before turning the bus around for reads (Count)
system.mem_ctrls.wrPerTurnAround::mean      17.125000                       # Writes before turning the bus around for reads (Count)
system.mem_ctrls.wrPerTurnAround::gmean     17.099656                       # Writes before turning the bus around for reads (Count)
system.mem_ctrls.wrPerTurnAround::stdev      0.991031                       # Writes before turning the bus around for reads (Count)
system.mem_ctrls.wrPerTurnAround::16                3     37.50%     37.50% # Writes before turning the bus around for reads (Count)
system.mem_ctrls.wrPerTurnAround::17                1     12.50%     50.00% # Writes before turning the bus around for reads (Count)
system.mem_ctrls.wrPerTurnAround::18                4     50.00%    100.00% # Writes before turning the bus around for reads (Count)
system.mem_ctrls.wrPerTurnAround::total             8                       # Writes before turning the bus around for reads (Count)
system.mem_ctrls.bytesReadWrQ                     640                       # Total number of bytes read from write queue (Byte)
system.mem_ctrls.bytesReadSys                   91712                       # Total read bytes from the system interface side (Byte)
system.mem_ctrls.bytesWrittenSys                10176                       # Total written bytes from the system interface side (Byte)
system.mem_ctrls.avgRdBWSys              19717218.55472134                       # Average system read bandwidth in Byte/s ((Byte/Second))
system.mem_ctrls.avgWrBWSys              2187744.41744640                       # Average system write bandwidth in Byte/s ((Byte/Second))
system.mem_ctrls.totGap                    4651149000                       # Total gap between requests (Tick)
system.mem_ctrls.avgGap                    2921576.01                       # Average gap between requests ((Tick/Count))
system.mem_ctrls.requestorReadBytes::cpu.inst        24896                       # Per-requestor bytes read from memory (Byte)
system.mem_ctrls.requestorReadBytes::cpu.data        66176                       # Per-requestor bytes read from memory (Byte)
system.mem_ctrls.requestorWriteBytes::writebacks         8768                       # Per-requestor bytes write to memory (Byte)
system.mem_ctrls.requestorReadRate::cpu.inst 5352406.153375159018                       # Per-requestor bytes read from memory rate ((Byte/Second))
system.mem_ctrls.requestorReadRate::cpu.data 14227218.412827543914                       # Per-requestor bytes read from memory rate ((Byte/Second))
system.mem_ctrls.requestorWriteRate::writebacks 1885037.642705390230                       # Per-requestor bytes write to memory rate ((Byte/Second))
system.mem_ctrls.requestorReadAccesses::cpu.inst          394                       # Per-requestor read serviced memory accesses (Count)
system.mem_ctrls.requestorReadAccesses::cpu.data         1039                       # Per-requestor read serviced memory accesses (Count)
system.mem_ctrls.requestorWriteAccesses::writebacks          159                       # Per-requestor write serviced memory accesses (Count)
system.mem_ctrls.requestorReadTotalLat::cpu.inst     10108500                       # Per-requestor read total memory access latency (Tick)
system.mem_ctrls.requestorReadTotalLat::cpu.data     24343250                       # Per-requestor read total memory access latency (Tick)
system.mem_ctrls.requestorWriteTotalLat::writebacks 119707060250                       # Per-requestor write total memory access latency (Tick)
system.mem_ctrls.requestorReadAvgLat::cpu.inst     25656.09                       # Per-requestor read average memory access latency ((Tick/Count))
system.mem_ctrls.requestorReadAvgLat::cpu.data     23429.50                       # Per-requestor read average memory access latency ((Tick/Count))
system.mem_ctrls.requestorWriteAvgLat::writebacks 752874592.77                       # Per-requestor write average memory access latency ((Tick/Count))
system.mem_ctrls.dram.bytesRead::cpu.inst        25216                       # Number of bytes read from this memory (Byte)
system.mem_ctrls.dram.bytesRead::cpu.data        66496                       # Number of bytes read from this memory (Byte)
system.mem_ctrls.dram.bytesRead::total          91712                       # Number of bytes read from this memory (Byte)
system.mem_ctrls.dram.bytesInstRead::cpu.inst        25216                       # Number of instructions bytes read from this memory (Byte)
system.mem_ctrls.dram.bytesInstRead::total        25216                       # Number of instructions bytes read from this memory (Byte)
system.mem_ctrls.dram.bytesWritten::writebacks         5184                       # Number of bytes written to this memory (Byte)
system.mem_ctrls.dram.bytesWritten::total         5184                       # Number of bytes written to this memory (Byte)
system.mem_ctrls.dram.numReads::cpu.inst          394                       # Number of read requests responded to by this memory (Count)
system.mem_ctrls.dram.numReads::cpu.data         1039                       # Number of read requests responded to by this memory (Count)
system.mem_ctrls.dram.numReads::total            1433                       # Number of read requests responded to by this memory (Count)
system.mem_ctrls.dram.numWrites::writebacks           81                       # Number of write requests responded to by this memory (Count)
system.mem_ctrls.dram.numWrites::total             81                       # Number of write requests responded to by this memory (Count)
system.mem_ctrls.dram.bwRead::cpu.inst        5421203                       # Total read bandwidth from this memory ((Byte/Second))
system.mem_ctrls.dram.bwRead::cpu.data       14296015                       # Total read bandwidth from this memory ((Byte/Second))
system.mem_ctrls.dram.bwRead::total          19717219                       # Total read bandwidth from this memory ((Byte/Second))
system.mem_ctrls.dram.bwInstRead::cpu.inst      5421203                       # Instruction read bandwidth from this memory ((Byte/Second))
system.mem_ctrls.dram.bwInstRead::total       5421203                       # Instruction read bandwidth from this memory ((Byte/Second))
system.mem_ctrls.dram.bwWrite::writebacks      1114511                       # Write bandwidth from this memory ((Byte/Second))
system.mem_ctrls.dram.bwWrite::total          1114511                       # Write bandwidth from this memory ((Byte/Second))
system.mem_ctrls.dram.bwTotal::writebacks      1114511                       # Total bandwidth to/from this memory ((Byte/Second))
system.mem_ctrls.dram.bwTotal::cpu.inst       5421203                       # Total bandwidth to/from this memory ((Byte/Second))
system.mem_ctrls.dram.bwTotal::cpu.data      14296015                       # Total bandwidth to/from this memory ((Byte/Second))
system.mem_ctrls.dram.bwTotal::total         20831730                       # Total bandwidth to/from this memory ((Byte/Second))
system.mem_ctrls.dram.readBursts                 1423                       # Number of DRAM read bursts (Count)
system.mem_ctrls.dram.writeBursts                 137                       # Number of DRAM write bursts (Count)
system.mem_ctrls.dram.perBankRdBursts::0          209                       # Per bank write bursts (Count)
system.mem_ctrls.dram.perBankRdBursts::1          145                       # Per bank write bursts (Count)
system.mem_ctrls.dram.perBankRdBursts::2          115                       # Per bank write bursts (Count)
system.mem_ctrls.dram.perBankRdBursts::3          117                       # Per bank write bursts (Count)
system.mem_ctrls.dram.perBankRdBursts::4          150                       # Per bank write bursts (Count)
system.mem_ctrls.dram.perBankRdBursts::5          109                       # Per bank write bursts (Count)
system.mem_ctrls.dram.perBankRdBursts::6          126                       # Per bank write bursts (Count)
system.mem_ctrls.dram.perBankRdBursts::7           33                       # Per bank write bursts (Count)
system.mem_ctrls.dram.perBankRdBursts::8           82                       # Per bank write bursts (Count)
system.mem_ctrls.dram.perBankRdBursts::9          102                       # Per bank write bursts (Count)
system.mem_ctrls.dram.perBankRdBursts::10           14                       # Per bank write bursts (Count)
system.mem_ctrls.dram.perBankRdBursts::11           19                       # Per bank write bursts (Count)
system.mem_ctrls.dram.perBankRdBursts::12           23                       # Per bank write bursts (Count)
system.mem_ctrls.dram.perBankRdBursts::13           74                       # Per bank write bursts (Count)
system.mem_ctrls.dram.perBankRdBursts::14            4                       # Per bank write bursts (Count)
system.mem_ctrls.dram.perBankRdBursts::15          101                       # Per bank write bursts (Count)
system.mem_ctrls.dram.perBankWrBursts::0           11                       # Per bank write bursts (Count)
system.mem_ctrls.dram.perBankWrBursts::1            3                       # Per bank write bursts (Count)
system.mem_ctrls.dram.perBankWrBursts::2            3                       # Per bank write bursts (Count)
system.mem_ctrls.dram.perBankWrBursts::3            1                       # Per bank write bursts (Count)
system.mem_ctrls.dram.perBankWrBursts::4           23                       # Per bank write bursts (Count)
system.mem_ctrls.dram.perBankWrBursts::5            0                       # Per bank write bursts (Count)
system.mem_ctrls.dram.perBankWrBursts::6            0                       # Per bank write bursts (Count)
system.mem_ctrls.dram.perBankWrBursts::7            0                       # Per bank write bursts (Count)
system.mem_ctrls.dram.perBankWrBursts::8            9                       # Per bank write bursts (Count)
system.mem_ctrls.dram.perBankWrBursts::9           38                       # Per bank write bursts (Count)
system.mem_ctrls.dram.perBankWrBursts::10            6                       # Per bank write bursts (Count)
system.mem_ctrls.dram.perBankWrBursts::11            7                       # Per bank write bursts (Count)
system.mem_ctrls.dram.perBankWrBursts::12            8                       # Per bank write bursts (Count)
system.mem_ctrls.dram.perBankWrBursts::13           28                       # Per bank write bursts (Count)
system.mem_ctrls.dram.perBankWrBursts::14            0                       # Per bank write bursts (Count)
system.mem_ctrls.dram.perBankWrBursts::15            0                       # Per bank write bursts (Count)
system.mem_ctrls.dram.totQLat                 7770500                       # Total ticks spent queuing (Tick)
system.mem_ctrls.dram.totBusLat               7115000                       # Total ticks spent in databus transfers (Tick)
system.mem_ctrls.dram.totMemAccLat           34451750                       # Total ticks spent from burst creation until serviced by the DRAM (Tick)
system.mem_ctrls.dram.avgQLat                 5460.65                       # Average queueing delay per DRAM burst ((Tick/Count))
system.mem_ctrls.dram.avgBusLat               5000.00                       # Average bus latency per DRAM burst ((Tick/Count))
system.mem_ctrls.dram.avgMemAccLat           24210.65                       # Average memory access latency per DRAM burst ((Tick/Count))
system.mem_ctrls.dram.readRowHits                1230                       # Number of row buffer hits during reads (Count)
system.mem_ctrls.dram.writeRowHits                112                       # Number of row buffer hits during writes (Count)
system.mem_ctrls.dram.readRowHitRate            86.44                       # Row buffer hit rate for reads (Ratio)
system.mem_ctrls.dram.writeRowHitRate           81.75                       # Row buffer hit rate for writes (Ratio)
system.mem_ctrls.dram.bytesPerActivate::samples          209                       # Bytes accessed per row activation (Byte)
system.mem_ctrls.dram.bytesPerActivate::mean   468.822967                       # Bytes accessed per row activation (Byte)
system.mem_ctrls.dram.bytesPerActivate::gmean   306.811822                       # Bytes accessed per row activation (Byte)
system.mem_ctrls.dram.bytesPerActivate::stdev   372.385259                       # Bytes accessed per row activation (Byte)
system.mem_ctrls.dram.bytesPerActivate::0-127           34     16.27%     16.27% # Bytes accessed per row activation (Byte)
system.mem_ctrls.dram.bytesPerActivate::128-255           49     23.44%     39.71% # Bytes accessed per row activation (Byte)
system.mem_ctrls.dram.bytesPerActivate::256-383           29     13.88%     53.59% # Bytes accessed per row activation (Byte)
system.mem_ctrls.dram.bytesPerActivate::384-511           13      6.22%     59.81% # Bytes accessed per row activation (Byte)
system.mem_ctrls.dram.bytesPerActivate::512-639            6      2.87%     62.68% # Bytes accessed per row activation (Byte)
system.mem_ctrls.dram.bytesPerActivate::640-767            9      4.31%     66.99% # Bytes accessed per row activation (Byte)
system.mem_ctrls.dram.bytesPerActivate::768-895           14      6.70%     73.68% # Bytes accessed per row activation (Byte)
system.mem_ctrls.dram.bytesPerActivate::896-1023           16      7.66%     81.34% # Bytes accessed per row activation (Byte)
system.mem_ctrls.dram.bytesPerActivate::1024-1151           39     18.66%    100.00% # Bytes accessed per row activation (Byte)
system.mem_ctrls.dram.bytesPerActivate::total          209                       # Bytes accessed per row activation (Byte)
system.mem_ctrls.dram.bytesRead                 91072                       # Total bytes read (Byte)
system.mem_ctrls.dram.bytesWritten               8768                       # Total bytes written (Byte)
system.mem_ctrls.dram.avgRdBW               19.579625                       # Average DRAM read bandwidth in MiBytes/s ((Byte/Second))
system.mem_ctrls.dram.avgWrBW                1.885038                       # Average DRAM write bandwidth in MiBytes/s ((Byte/Second))
system.mem_ctrls.dram.peakBW                 12800.00                       # Theoretical peak bandwidth in MiByte/s ((Byte/Second))
system.mem_ctrls.dram.busUtil                    0.17                       # Data bus utilization in percentage (Ratio)
system.mem_ctrls.dram.busUtilRead                0.15                       # Data bus utilization in percentage for reads (Ratio)
system.mem_ctrls.dram.busUtilWrite               0.01                       # Data bus utilization in percentage for writes (Ratio)
system.mem_ctrls.dram.pageHitRate               86.03                       # Row buffer hit rate, read and write combined (Ratio)
system.mem_ctrls.dram.power_state.pwrStateResidencyTicks::UNDEFINED   4651366000                       # Cumulative time (in ticks) in various power states (Tick)
system.mem_ctrls.dram.rank0.actEnergy          863940                       # Energy for activate commands per rank (pJ) (Joule)
system.mem_ctrls.dram.rank0.preEnergy          444015                       # Energy for precharge commands per rank (pJ) (Joule)
system.mem_ctrls.dram.rank0.readEnergy        7168560                       # Energy for read commands per rank (pJ) (Joule)
system.mem_ctrls.dram.rank0.writeEnergy        214020                       # Energy for write commands per rank (pJ) (Joule)
system.mem_ctrls.dram.rank0.refreshEnergy 366940080.000000                       # Energy for refresh commands per rank (pJ) (Joule)
system.mem_ctrls.dram.rank0.actBackEnergy    171106590                       # Energy for active background per rank (pJ) (Joule)
system.mem_ctrls.dram.rank0.preBackEnergy   1642034880                       # Energy for precharge background per rank (pJ) (Joule)
system.mem_ctrls.dram.rank0.actPowerDownEnergy            0                       # Energy for active power-down per rank (pJ) (Joule)
system.mem_ctrls.dram.rank0.prePowerDownEnergy            0                       # Energy for precharge power-down per rank (pJ) (Joule)
system.mem_ctrls.dram.rank0.selfRefreshEnergy            0                       # Energy for self refresh per rank (pJ) (Joule)
system.mem_ctrls.dram.rank0.totalEnergy    2188772085                       # Total energy per rank (pJ) (Joule)
system.mem_ctrls.dram.rank0.averagePower   470.565439                       # Core power per rank (mW) (Watt)
system.mem_ctrls.dram.rank0.totalIdleTime            0                       # Total Idle time Per DRAM Rank (Tick)
system.mem_ctrls.dram.rank0.pwrStateTime::IDLE   4267216750                       # Time in different power states (Tick)
system.mem_ctrls.dram.rank0.pwrStateTime::REF    155220000                       # Time in different power states (Tick)
system.mem_ctrls.dram.rank0.pwrStateTime::SREF            0                       # Time in different power states (Tick)
system.mem_ctrls.dram.rank0.pwrStateTime::PRE_PDN            0                       # Time in different power states (Tick)
system.mem_ctrls.dram.rank0.pwrStateTime::ACT    228929250                       # Time in different power states (Tick)
system.mem_ctrls.dram.rank0.pwrStateTime::ACT_PDN            0                       # Time in different power states (Tick)
system.mem_ctrls.dram.rank1.actEnergy          692580                       # Energy for activate commands per rank (pJ) (Joule)
system.mem_ctrls.dram.rank1.preEnergy          349140                       # Energy for precharge commands per rank (pJ) (Joule)
system.mem_ctrls.dram.rank1.readEnergy        2991660                       # Energy for read commands per rank (pJ) (Joule)
system.mem_ctrls.dram.rank1.writeEnergy        501120                       # Energy for write commands per rank (pJ) (Joule)
system.mem_ctrls.dram.rank1.refreshEnergy 366940080.000000                       # Energy for refresh commands per rank (pJ) (Joule)
system.mem_ctrls.dram.rank1.actBackEnergy    116896170                       # Energy for active background per rank (pJ) (Joule)
system.mem_ctrls.dram.rank1.preBackEnergy   1687685760                       # Energy for precharge background per rank (pJ) (Joule)
system.mem_ctrls.dram.rank1.actPowerDownEnergy            0                       # Energy for active power-down per rank (pJ) (Joule)
system.mem_ctrls.dram.rank1.prePowerDownEnergy            0                       # Energy for precharge power-down per rank (pJ) (Joule)
system.mem_ctrls.dram.rank1.selfRefreshEnergy            0                       # Energy for self refresh per rank (pJ) (Joule)
system.mem_ctrls.dram.rank1.totalEnergy    2176056510                       # Total energy per rank (pJ) (Joule)
system.mem_ctrls.dram.rank1.averagePower   467.831710                       # Core power per rank (mW) (Watt)
system.mem_ctrls.dram.rank1.totalIdleTime            0                       # Total Idle time Per DRAM Rank (Tick)
system.mem_ctrls.dram.rank1.pwrStateTime::IDLE   4386526000                       # Time in different power states (Tick)
system.mem_ctrls.dram.rank1.pwrStateTime::REF    155220000                       # Time in different power states (Tick)
system.mem_ctrls.dram.rank1.pwrStateTime::SREF            0                       # Time in different power states (Tick)
system.mem_ctrls.dram.rank1.pwrStateTime::PRE_PDN            0                       # Time in different power states (Tick)
system.mem_ctrls.dram.rank1.pwrStateTime::ACT    109620000                       # Time in different power states (Tick)
system.mem_ctrls.dram.rank1.pwrStateTime::ACT_PDN            0                       # Time in different power states (Tick)
system.mem_ctrls.power_state.pwrStateResidencyTicks::UNDEFINED   4651366000                       # Cumulative time (in ticks) in various power states (Tick)
system.membus.transDist::ReadResp                1286                       # Transaction distribution (Count)
system.membus.transDist::WritebackDirty            81                       # Transaction distribution (Count)
system.membus.transDist::WritebackClean            78                       # Transaction distribution (Count)
system.membus.transDist::CleanEvict               109                       # Transaction distribution (Count)
system.membus.transDist::ReadExReq                147                       # Transaction distribution (Count)
system.membus.transDist::ReadExResp               147                       # Transaction distribution (Count)
system.membus.transDist::ReadCleanReq             394                       # Transaction distribution (Count)
system.membus.transDist::ReadSharedReq            892                       # Transaction distribution (Count)
system.membus.pktCount_system.cpu.icache.mem_side_port::system.mem_ctrls.port          866                       # Packet count per connected requestor and responder (Count)
system.membus.pktCount_system.cpu.dcache.mem_side_port::system.mem_ctrls.port         2268                       # Packet count per connected requestor and responder (Count)
system.membus.pktCount::total                    3134                       # Packet count per connected requestor and responder (Count)
system.membus.pktSize_system.cpu.icache.mem_side_port::system.mem_ctrls.port        30208                       # Cumulative packet size per connected requestor and responder (Byte)
system.membus.pktSize_system.cpu.dcache.mem_side_port::system.mem_ctrls.port        71680                       # Cumulative packet size per connected requestor and responder (Byte)
system.membus.pktSize::total                   101888                       # Cumulative packet size per connected requestor and responder (Byte)
system.membus.snoops                                0                       # Total snoops (Count)
system.membus.snoopTraffic                          0                       # Total snoop traffic (Byte)
system.membus.snoopFanout::samples               1433                       # Request fanout histogram (Count)
system.membus.snoopFanout::mean                     0                       # Request fanout histogram (Count)
system.membus.snoopFanout::stdev                    0                       # Request fanout histogram (Count)
system.membus.snoopFanout::underflows               0      0.00%      0.00% # Request fanout histogram (Count)
system.membus.snoopFanout::0                     1433    100.00%    100.00% # Request fanout histogram (Count)
system.membus.snoopFanout::1                        0      0.00%    100.00% # Request fanout histogram (Count)
system.membus.snoopFanout::2                        0      0.00%    100.00% # Request fanout histogram (Count)
system.membus.snoopFanout::3                        0      0.00%    100.00% # Request fanout histogram (Count)
system.membus.snoopFanout::4                        0      0.00%    100.00% # Request fanout histogram (Count)
system.membus.snoopFanout::overflows                0      0.00%    100.00% # Request fanout histogram (Count)
system.membus.snoopFanout::min_value                0                       # Request fanout histogram (Count)
system.membus.snoopFanout::max_value                0                       # Request fanout histogram (Count)
system.membus.snoopFanout::total                 1433                       # Request fanout histogram (Count)
system.membus.power_state.pwrStateResidencyTicks::UNDEFINED   4651366000                       # Cumulative time (in ticks) in various power states (Tick)
system.membus.reqLayer0.occupancy             2337000                       # Layer occupancy (ticks) (Tick)
system.membus.reqLayer0.utilization               0.0                       # Layer utilization (Ratio)
system.membus.respLayer1.occupancy            2091500                       # Layer occupancy (ticks) (Tick)
system.membus.respLayer1.utilization              0.0                       # Layer utilization (Ratio)
system.membus.respLayer2.occupancy            5482750                       # Layer occupancy (ticks) (Tick)
system.membus.respLayer2.utilization              0.0                       # Layer utilization (Ratio)
system.membus.snoop_filter.totRequests           1701                       # Total number of requests made to the snoop filter. (Count)
system.membus.snoop_filter.hitSingleRequests          268                       # Number of requests hitting in the snoop filter with a single holder of the requested data. (Count)
system.membus.snoop_filter.hitMultiRequests            0                       # Number of requests hitting in the snoop filter with multiple (>1) holders of the requested data. (Count)
system.membus.snoop_filter.totSnoops                0                       # Total number of snoops made to the snoop filter. (Count)
system.membus.snoop_filter.hitSingleSnoops            0                       # Number of snoops hitting in the snoop filter with a single holder of the requested data. (Count)
system.membus.snoop_filter.hitMultiSnoops            0                       # Number of snoops hitting in the snoop filter with multiple (>1) holders of the requested data. (Count)
system.voltage_domain.voltage                       1                       # Voltage in Volts (Volt)
system.workload.inst.arm                            0                       # number of arm instructions executed (Count)
system.workload.inst.quiesce                        0                       # number of quiesce instructions executed (Count)

---------- End Simulation Statistics   ----------
